@<TRIPOS>MOLECULE
*****
 648 714 0 0 0
SMALL
GASTEIGER

@<TRIPOS>ATOM
      1 C          -2.0149    6.8852    0.3477 C.ar    1  UNL111     -0.0176
      2 C          -2.8624    6.2322    1.2547 C.ar    1  UNL111     -0.0537
      3 C          -3.2324    4.8973    1.0606 C.ar    1  UNL111     -0.0569
      4 C          -2.7581    4.1809   -0.0458 C.ar    1  UNL111     -0.0327
      5 C          -1.8880    4.8189   -0.9392 C.ar    1  UNL111     -0.0569
      6 C          -1.5206    6.1538   -0.7424 C.ar    1  UNL111     -0.0537
      7 H          -0.8382    6.6255   -1.4470 H       1  UNL111      0.0624
      8 H          -1.4823    4.2796   -1.7928 H       1  UNL111      0.0621
      9 H          -3.2467    6.7689    2.1204 H       1  UNL111      0.0624
     10 H          -3.8900    4.4202    1.7846 H       1  UNL111      0.0621
     11 C          -3.1458    2.7430   -0.2511 C.3     1  UNL111      0.0476
     12 CL         -1.9997    1.6642    0.5681 Cl      1  UNL111     -0.1204
     13 H          -3.1577    2.4881   -1.3160 H       1  UNL111      0.0478
     14 H          -4.1476    2.5464    0.1448 H       1  UNL111      0.0478
     15 C          -1.6665   10.6738    0.0619 C.ar    1  UNL111     -0.0539
     16 C          -0.7042   10.9381    1.0538 C.ar    1  UNL111     -0.0393
     17 C          -2.1268    9.3625   -0.2084 C.ar    1  UNL111     -0.0351
     18 C          -0.2166    9.8728    1.8161 C.ar    1  UNL111     -0.0390
     19 C          -1.6225    8.2888    0.5572 C.ar    1  UNL111     -0.0141
     20 H          -2.0650   11.5052   -0.5191 H       1  UNL111      0.0623
     21 C          -0.6831    8.5704    1.5668 C.ar    1  UNL111     -0.0500
     22 H          -0.2941    7.7473    2.1669 H       1  UNL111      0.0627
     23 C          -3.1474    9.1662   -1.3172 C.3     1  UNL111     -0.0018
     24 C          -4.5695    9.5195   -0.9440 C.ar    1  UNL111     -0.0427
     25 H          -3.1358    8.1424   -1.7055 H       1  UNL111      0.0362
     26 H          -2.8349    9.7706   -2.1805 H       1  UNL111      0.0362
     27 C          -5.3776    8.6231   -0.2419 C.ar    1  UNL111     -0.0577
     28 C          -6.6917    8.9613    0.0918 C.ar    1  UNL111     -0.0535
     29 C          -7.2408   10.2057   -0.2635 C.ar    1  UNL111     -0.0144
     30 C          -6.4312   11.1207   -0.9711 C.ar    1  UNL111     -0.0351
     31 C          -5.1102   10.7570   -1.3103 C.ar    1  UNL111     -0.0542
     32 H          -4.9977    7.6468    0.0440 H       1  UNL111      0.0621
     33 H          -7.2968    8.2394    0.6385 H       1  UNL111      0.0624
     34 H          -4.4928   11.4627   -1.8651 H       1  UNL111      0.0623
     35 C          -8.6316   10.4920    0.1159 C.ar    1  UNL111     -0.0176
     36 C          -9.6955   10.0770   -0.6978 C.ar    1  UNL111     -0.0537
     37 C         -11.0205   10.3371   -0.3340 C.ar    1  UNL111     -0.0569
     38 C         -11.3116   11.0240    0.8521 C.ar    1  UNL111     -0.0327
     39 C          -8.9276   11.1656    1.3093 C.ar    1  UNL111     -0.0537
     40 C         -10.2518   11.4279    1.6750 C.ar    1  UNL111     -0.0569
     41 H          -9.4940    9.5396   -1.6224 H       1  UNL111      0.0624
     42 H         -11.8242    9.9919   -0.9813 H       1  UNL111      0.0621
     43 H          -8.1216   11.4860    1.9665 H       1  UNL111      0.0624
     44 H         -10.4487   11.9443    2.6124 H       1  UNL111      0.0621
     45 C         -12.7360   11.2918    1.2515 C.3     1  UNL111      0.0476
     46 CL        -13.3790    9.9453    2.2122 Cl      1  UNL111     -0.1204
     47 H         -13.3729   11.4204    0.3700 H       1  UNL111      0.0478
     48 H         -12.8115   12.2070    1.8479 H       1  UNL111      0.0478
     49 C           0.7697   10.0933    2.9339 C.3     1  UNL111     -0.0019
     50 C           1.4911   11.4182    2.9067 C.ar    1  UNL111     -0.0395
     51 H           1.5214    9.2943    2.8883 H       1  UNL111      0.0362
     52 H           0.2348   10.0095    3.8882 H       1  UNL111      0.0362
     53 C          -0.2401   12.3602    1.3094 C.3     1  UNL111     -0.0019
     54 C           1.0212   12.4988    2.1428 C.ar    1  UNL111     -0.0390
     55 H          -1.0491   12.8990    1.8179 H       1  UNL111      0.0362
     56 H          -0.0600   12.8385    0.3383 H       1  UNL111      0.0362
     57 C           2.6337   11.5795    3.7011 C.ar    1  UNL111     -0.0574
     58 C           3.3100   12.7986    3.7339 C.ar    1  UNL111     -0.0537
     59 C           1.7124   13.7329    2.1928 C.ar    1  UNL111     -0.0503
     60 C           2.8636   13.8966    2.9843 C.ar    1  UNL111     -0.0176
     61 H           1.3455   14.5761    1.6103 H       1  UNL111      0.0627
     62 H           3.0056   10.7524    4.3020 H       1  UNL111      0.0621
     63 H           4.1998   12.8913    4.3544 H       1  UNL111      0.0624
     64 C           3.6220   15.1573    3.0550 C.ar    1  UNL111     -0.0179
     65 C           4.6280   15.4441    2.1217 C.ar    1  UNL111     -0.0538
     66 C           5.4836   16.5431    2.2945 C.ar    1  UNL111     -0.0577
     67 C           5.3585   17.3863    3.4093 C.ar    1  UNL111     -0.0430
     68 C           4.3156   17.1386    4.3120 C.ar    1  UNL111     -0.0577
     69 H           4.7889   14.7763    1.2772 H       1  UNL111      0.0624
     70 H           6.2793   16.7068    1.5705 H       1  UNL111      0.0621
     71 C           3.4611   16.0382    4.1362 C.ar    1  UNL111     -0.0538
     72 H           4.1832   17.7787    5.1821 H       1  UNL111      0.0621
     73 H           2.6915   15.8439    4.8812 H       1  UNL111      0.0624
     74 C          -6.9283   12.4867   -1.4094 C.3     1  UNL111     -0.0018
     75 C          -6.0904   13.6582   -0.9314 C.ar    1  UNL111     -0.0430
     76 H          -7.9559   12.6750   -1.0817 H       1  UNL111      0.0362
     77 H          -6.9617   12.4760   -2.5072 H       1  UNL111      0.0362
     78 C          -5.6103   13.7231    0.3844 C.ar    1  UNL111     -0.0577
     79 C          -4.9136   14.8468    0.8330 C.ar    1  UNL111     -0.0538
     80 C          -5.8522   14.7411   -1.7890 C.ar    1  UNL111     -0.0577
     81 C          -5.1662   15.8714   -1.3351 C.ar    1  UNL111     -0.0538
     82 C          -4.7100   15.9470   -0.0120 C.ar    1  UNL111     -0.0176
     83 H          -5.7896   12.9048    1.0789 H       1  UNL111      0.0621
     84 H          -4.5753   14.8837    1.8666 H       1  UNL111      0.0624
     85 H          -6.2252   14.7259   -2.8109 H       1  UNL111      0.0621
     86 H          -5.0282   16.7158   -2.0073 H       1  UNL111      0.0624
     87 C          -4.1473   17.1970    0.5178 C.ar    1  UNL111     -0.0141
     88 C          -2.7614   17.4315    0.4180 C.ar    1  UNL111     -0.0500
     89 C          -2.1616   18.5819    0.9617 C.ar    1  UNL111     -0.0390
     90 C          -4.9659   18.1516    1.1687 C.ar    1  UNL111     -0.0351
     91 C          -4.3648   19.3151    1.6799 C.ar    1  UNL111     -0.0539
     92 C          -2.9747   19.5353    1.5849 C.ar    1  UNL111     -0.0393
     93 H          -2.1340   16.6831   -0.0654 H       1  UNL111      0.0627
     94 H          -4.9823   20.0478    2.1992 H       1  UNL111      0.0623
     95 C          -6.4262   17.8566    1.4817 C.3     1  UNL111     -0.0018
     96 C          -7.4755   18.8995    1.1623 C.ar    1  UNL111     -0.0427
     97 H          -6.4610   17.6160    2.5534 H       1  UNL111      0.0362
     98 H          -6.7746   16.9500    0.9768 H       1  UNL111      0.0362
     99 C          -8.4299   19.2209    2.1330 C.ar    1  UNL111     -0.0577
    100 C          -9.5176   20.0361    1.8202 C.ar    1  UNL111     -0.0535
    101 C          -9.6961   20.5569    0.5270 C.ar    1  UNL111     -0.0144
    102 C          -8.7243   20.2618   -0.4589 C.ar    1  UNL111     -0.0351
    103 C          -7.6280   19.4303   -0.1259 C.ar    1  UNL111     -0.0542
    104 H          -8.3582   18.8072    3.1365 H       1  UNL111      0.0621
    105 H         -10.2550   20.2448    2.5937 H       1  UNL111      0.0624
    106 H          -6.8961   19.1756   -0.8915 H       1  UNL111      0.0623
    107 C         -10.9020   21.3601    0.2669 C.ar    1  UNL111     -0.0176
    108 C         -11.9680   20.8401   -0.4825 C.ar    1  UNL111     -0.0537
    109 C         -13.1187   21.5986   -0.7191 C.ar    1  UNL111     -0.0569
    110 C         -13.2381   22.8920   -0.1949 C.ar    1  UNL111     -0.0327
    111 C         -12.1791   23.4150    0.5586 C.ar    1  UNL111     -0.0569
    112 C         -11.0288   22.6547    0.7910 C.ar    1  UNL111     -0.0537
    113 H         -11.9029   19.8337   -0.8917 H       1  UNL111      0.0624
    114 H         -10.2139   23.0872    1.3689 H       1  UNL111      0.0624
    115 H         -12.2349   24.4237    0.9629 H       1  UNL111      0.0621
    116 H         -13.9195   21.1710   -1.3192 H       1  UNL111      0.0621
    117 C         -14.4649   23.7173   -0.4641 C.3     1  UNL111      0.0476
    118 CL        -14.2386   24.7075   -1.9200 Cl      1  UNL111     -0.1204
    119 H         -14.6816   24.3836    0.3775 H       1  UNL111      0.0478
    120 H         -15.3429   23.0807   -0.6146 H       1  UNL111      0.0478
    121 C          -8.7933   20.8392   -1.8650 C.3     1  UNL111     -0.0018
    122 C          -8.3385   22.2790   -1.9407 C.ar    1  UNL111     -0.0430
    123 H          -9.8061   20.7302   -2.2698 H       1  UNL111      0.0362
    124 H          -8.1688   20.2440   -2.5451 H       1  UNL111      0.0362
    125 C          -6.9878   22.5998   -1.7740 C.ar    1  UNL111     -0.0577
    126 C          -6.5764   23.9331   -1.7483 C.ar    1  UNL111     -0.0538
    127 C          -7.4989   24.9850   -1.8777 C.ar    1  UNL111     -0.0179
    128 C          -9.2589   23.3178   -2.1270 C.ar    1  UNL111     -0.0577
    129 C          -8.8450   24.6534   -2.0878 C.ar    1  UNL111     -0.0538
    130 H          -6.2472   21.8155   -1.6365 H       1  UNL111      0.0621
    131 H          -5.5186   24.1473   -1.6089 H       1  UNL111      0.0624
    132 H         -10.3165   23.1001   -2.2629 H       1  UNL111      0.0621
    133 H          -9.5960   25.4347   -2.1853 H       1  UNL111      0.0624
    134 C          -7.0575   26.3841   -1.7540 C.ar    1  UNL111     -0.0176
    135 C          -6.2201   26.7691   -0.6935 C.ar    1  UNL111     -0.0503
    136 C          -5.7435   28.0821   -0.5650 C.ar    1  UNL111     -0.0390
    137 C          -7.4454   27.3692   -2.6714 C.ar    1  UNL111     -0.0537
    138 C          -6.9928   28.6864   -2.5452 C.ar    1  UNL111     -0.0574
    139 C          -6.1278   29.0486   -1.5034 C.ar    1  UNL111     -0.0395
    140 H          -5.9323   26.0306    0.0538 H       1  UNL111      0.0627
    141 H          -8.0951   27.1150   -3.5061 H       1  UNL111      0.0624
    142 H          -7.3128   29.4274   -3.2745 H       1  UNL111      0.0621
    143 C          -4.8594   28.4297    0.6065 C.3     1  UNL111     -0.0019
    144 C          -4.0788   29.7105    0.4520 C.ar    1  UNL111     -0.0393
    145 C          -4.4504   30.6728   -0.4921 C.ar    1  UNL111     -0.0390
    146 C          -5.6542   30.4763   -1.3832 C.3     1  UNL111     -0.0019
    147 H          -6.4789   31.0836   -0.9898 H       1  UNL111      0.0362
    148 H          -5.4035   30.8420   -2.3872 H       1  UNL111      0.0362
    149 H          -4.1455   27.6093    0.7556 H       1  UNL111      0.0362
    150 H          -5.4865   28.5099    1.5031 H       1  UNL111      0.0362
    151 C          -3.0017   29.9672    1.3131 C.ar    1  UNL111     -0.0539
    152 C          -3.7239   31.8686   -0.5676 C.ar    1  UNL111     -0.0500
    153 C          -2.6407   32.1408    0.2917 C.ar    1  UNL111     -0.0141
    154 C          -2.2836   31.1767    1.2596 C.ar    1  UNL111     -0.0351
    155 H          -2.7343   29.2222    2.0618 H       1  UNL111      0.0623
    156 H          -4.0201   32.6215   -1.2982 H       1  UNL111      0.0627
    157 C          -1.9691   33.4399    0.1449 C.ar    1  UNL111     -0.0176
    158 C          -1.0382   33.6483   -0.8829 C.ar    1  UNL111     -0.0537
    159 C          -0.4336   34.8956   -1.0614 C.ar    1  UNL111     -0.0569
    160 C          -2.2874   34.5161    0.9852 C.ar    1  UNL111     -0.0537
    161 C          -1.6850   35.7652    0.8087 C.ar    1  UNL111     -0.0569
    162 C          -0.7599   35.9699   -0.2236 C.ar    1  UNL111     -0.0327
    163 H          -0.7800   32.8307   -1.5540 H       1  UNL111      0.0624
    164 H           0.2919   35.0216   -1.8625 H       1  UNL111      0.0621
    165 H          -3.0160   34.3849    1.7829 H       1  UNL111      0.0624
    166 H          -1.9474   36.5783    1.4825 H       1  UNL111      0.0621
    167 C          -0.1127   37.3127   -0.4159 C.3     1  UNL111      0.0476
    168 CL          1.3887   37.4210    0.5232 Cl      1  UNL111     -0.1204
    169 H          -0.7800   38.1194   -0.0948 H       1  UNL111      0.0478
    170 H           0.1263   37.4849   -1.4706 H       1  UNL111      0.0478
    171 C          -1.2210   31.4105    2.3104 C.3     1  UNL111     -0.0018
    172 C          -0.6545   18.7323    0.9007 C.3     1  UNL111     -0.0019
    173 C          -2.3942   20.7840    2.2020 C.3     1  UNL111     -0.0019
    174 C          -0.9091   20.9870    2.0277 C.ar    1  UNL111     -0.0390
    175 H          -2.6111   20.7671    3.2774 H       1  UNL111      0.0362
    176 H          -2.9086   21.6457    1.7563 H       1  UNL111      0.0362
    177 C          -0.0873   20.0317    1.4298 C.ar    1  UNL111     -0.0393
    178 H          -0.3496   18.6326   -0.1491 H       1  UNL111      0.0362
    179 H          -0.2073   17.9096    1.4729 H       1  UNL111      0.0362
    180 C           1.2928   20.3029    1.2961 C.ar    1  UNL111     -0.0539
    181 C          -0.3396   22.1917    2.4676 C.ar    1  UNL111     -0.0500
    182 C           1.0280   22.4989    2.2928 C.ar    1  UNL111     -0.0141
    183 C           1.8653   21.5349    1.6971 C.ar    1  UNL111     -0.0351
    184 H           1.9263   19.5568    0.8162 H       1  UNL111      0.0623
    185 H          -0.9890   22.9409    2.9227 H       1  UNL111      0.0627
    186 C           1.4498   23.8602    2.6594 C.ar    1  UNL111     -0.0176
    187 C           2.0274   24.1420    3.9014 C.ar    1  UNL111     -0.0538
    188 C           1.1425   24.9367    1.8130 C.ar    1  UNL111     -0.0538
    189 C           1.3569   26.2598    2.2141 C.ar    1  UNL111     -0.0577
    190 C           1.8909   26.5482    3.4763 C.ar    1  UNL111     -0.0430
    191 C           2.2457   25.4678    4.3033 C.ar    1  UNL111     -0.0577
    192 H           2.6651   25.6524    5.2906 H       1  UNL111      0.0621
    193 H           2.2716   23.3295    4.5832 H       1  UNL111      0.0624
    194 H           0.6854   24.7493    0.8426 H       1  UNL111      0.0624
    195 H           1.0664   27.0543    1.5301 H       1  UNL111      0.0621
    196 C           2.0333   27.9630    4.0190 C.3     1  UNL111     -0.0018
    197 C           0.4313   29.6038    2.9814 C.ar    1  UNL111     -0.0542
    198 C           1.0474   31.1453    1.2450 C.ar    1  UNL111     -0.0577
    199 C           0.0904   30.6758    2.1418 C.ar    1  UNL111     -0.0427
    200 H          -1.6556   31.1508    3.2867 H       1  UNL111      0.0362
    201 H          -0.9943   32.4777    2.4161 H       1  UNL111      0.0362
    202 C           1.7523   29.0980    3.0463 C.ar    1  UNL111     -0.0351
    203 C           2.7524   29.6930    2.2451 C.ar    1  UNL111     -0.0144
    204 C           2.3526   30.6548    1.2923 C.ar    1  UNL111     -0.0535
    205 H           0.8170   31.9627    0.5676 H       1  UNL111      0.0621
    206 H           3.0973   31.1107    0.6403 H       1  UNL111      0.0624
    207 H          -0.3231   29.1969    3.6538 H       1  UNL111      0.0623
    208 H           3.0272   28.0849    4.4637 H       1  UNL111      0.0362
    209 H           1.3361   28.0580    4.8636 H       1  UNL111      0.0362
    210 C           4.1983   29.5621    2.5245 C.ar    1  UNL111     -0.0173
    211 C           4.9179   28.3642    2.5030 C.ar    1  UNL111     -0.0537
    212 C           6.2669   28.3321    2.8994 C.ar    1  UNL111     -0.0574
    213 C           6.9329   29.5004    3.3088 C.ar    1  UNL111     -0.0395
    214 C           6.2395   30.7136    3.2710 C.ar    1  UNL111     -0.0390
    215 C           4.8923   30.7280    2.8939 C.ar    1  UNL111     -0.0503
    216 H           4.4333   27.4388    2.2006 H       1  UNL111      0.0624
    217 H           6.7921   27.3788    2.8968 H       1  UNL111      0.0621
    218 H           4.3591   31.6794    2.9118 H       1  UNL111      0.0627
    219 C           6.3742   18.4933    3.6632 C.3     1  UNL111     -0.0018
    220 C           5.9750   19.9390    3.3822 C.ar    1  UNL111     -0.0351
    221 H           7.2662   18.2665    3.0666 H       1  UNL111      0.0362
    222 H           6.6762   18.4127    4.7162 H       1  UNL111      0.0362
    223 C           6.8162   21.0167    3.7969 C.ar    1  UNL111     -0.0144
    224 C           6.3680   22.3284    3.5449 C.ar    1  UNL111     -0.0535
    225 C           5.1914   22.5853    2.8287 C.ar    1  UNL111     -0.0577
    226 C           4.7953   20.2255    2.6442 C.ar    1  UNL111     -0.0542
    227 C           4.4108   21.5381    2.3298 C.ar    1  UNL111     -0.0427
    228 H           4.1892   19.4083    2.2568 H       1  UNL111      0.0623
    229 H           6.9821   23.1757    3.8470 H       1  UNL111      0.0624
    230 H           4.9300   23.6181    2.6047 H       1  UNL111      0.0621
    231 C           3.3088   21.8266    1.3262 C.3     1  UNL111     -0.0018
    232 H           3.5530   21.2645    0.4124 H       1  UNL111      0.0362
    233 H           3.3813   22.8713    0.9950 H       1  UNL111      0.0362
    234 C           8.1917   20.8506    4.3536 C.ar    1  UNL111     -0.0176
    235 C           8.5771   21.3278    5.6221 C.ar    1  UNL111     -0.0538
    236 C           9.9048   21.1966    6.1052 C.ar    1  UNL111     -0.0577
    237 C          10.8978   20.6023    5.3202 C.ar    1  UNL111     -0.0430
    238 C          10.5164   20.1488    4.0429 C.ar    1  UNL111     -0.0577
    239 C           9.2017   20.2789    3.5687 C.ar    1  UNL111     -0.0538
    240 H           7.8340   21.7973    6.2650 H       1  UNL111      0.0624
    241 H          10.1336   21.5319    7.1149 H       1  UNL111      0.0621
    242 H          11.2416   19.6436    3.4059 H       1  UNL111      0.0621
    243 H           8.9740   19.9190    2.5670 H       1  UNL111      0.0624
    244 C          12.2675   20.1757    5.8282 C.3     1  UNL111     -0.0018
    245 C          13.1837   21.0078    6.7209 C.ar    1  UNL111     -0.0351
    246 H          12.8855   19.9208    4.9557 H       1  UNL111      0.0362
    247 H          12.0561   19.2311    6.3471 H       1  UNL111      0.0362
    248 C          13.2409   22.4240    6.7101 C.ar    1  UNL111     -0.0539
    249 C          14.2244   23.1449    7.4501 C.ar    1  UNL111     -0.0393
    250 C          15.1342   22.4306    8.2355 C.ar    1  UNL111     -0.0390
    251 C          15.0890   21.0380    8.2461 C.ar    1  UNL111     -0.0500
    252 C          14.1673   20.3151    7.4764 C.ar    1  UNL111     -0.0141
    253 C          14.3847   18.8597    7.4499 C.ar    1  UNL111     -0.0176
    254 H          15.8299   20.4921    8.8323 H       1  UNL111      0.0627
    255 H          12.5397   22.9794    6.0886 H       1  UNL111      0.0623
    256 C          15.3185   18.3127    6.5549 C.ar    1  UNL111     -0.0537
    257 C          15.6906   16.9698    6.6392 C.ar    1  UNL111     -0.0569
    258 C          15.1385   16.1433    7.6257 C.ar    1  UNL111     -0.0327
    259 C          14.1711   16.6741    8.4910 C.ar    1  UNL111     -0.0569
    260 C          13.8032   18.0206    8.4081 C.ar    1  UNL111     -0.0537
    261 H          15.7965   18.9503    5.8129 H       1  UNL111      0.0624
    262 H          16.4343   16.5820    5.9460 H       1  UNL111      0.0621
    263 H          13.7149   16.0490    9.2558 H       1  UNL111      0.0621
    264 H          13.0869   18.4241    9.1209 H       1  UNL111      0.0624
    265 C          15.5809   14.7126    7.7532 C.3     1  UNL111      0.0476
    266 CL         14.6400   13.6662    6.6758 Cl      1  UNL111     -0.1204
    267 H          15.4578   14.3534    8.7804 H       1  UNL111      0.0478
    268 H          16.6415   14.6105    7.4982 H       1  UNL111      0.0478
    269 C          16.1927   23.0793    9.0780 C.3     1  UNL111     -0.0019
    270 C          16.4012   24.5443    8.8500 C.ar    1  UNL111     -0.0395
    271 H          17.1467   22.5732    8.8739 H       1  UNL111      0.0362
    272 H          15.9403   22.9235   10.1344 H       1  UNL111      0.0362
    273 C          15.5277   25.3060    8.0620 C.ar    1  UNL111     -0.0390
    274 C          14.3132   24.6671    7.3903 C.3     1  UNL111     -0.0019
    275 H          14.3257   24.9601    6.3330 H       1  UNL111      0.0362
    276 H          13.4116   25.0786    7.8595 H       1  UNL111      0.0362
    277 C          17.4992   25.1463    9.4807 C.ar    1  UNL111     -0.0574
    278 C          17.7418   26.5045    9.3321 C.ar    1  UNL111     -0.0537
    279 C          16.8982   27.3050    8.5505 C.ar    1  UNL111     -0.0176
    280 C          15.7878   26.6899    7.9264 C.ar    1  UNL111     -0.0503
    281 H          15.1183   27.2980    7.3195 H       1  UNL111      0.0627
    282 H          18.5917   26.9427    9.8522 H       1  UNL111      0.0624
    283 H          18.1706   24.5553   10.1003 H       1  UNL111      0.0621
    284 C          17.1927   28.7465    8.4412 C.ar    1  UNL111     -0.0176
    285 C          18.4817   29.1970    8.1215 C.ar    1  UNL111     -0.0537
    286 C          18.7995   30.5577    8.1280 C.ar    1  UNL111     -0.0566
    287 C          16.2281   29.7151    8.7422 C.ar    1  UNL111     -0.0502
    288 C          16.5189   31.1006    8.7277 C.ar    1  UNL111     -0.0382
    289 C          17.8315   31.5279    8.4322 C.ar    1  UNL111     -0.0293
    290 H          19.8248   30.8523    7.9096 H       1  UNL111      0.0621
    291 H          19.2673   28.4811    7.8861 H       1  UNL111      0.0624
    292 H          15.2252   29.3900    9.0205 H       1  UNL111      0.0627
    293 C          18.2641   32.9724    8.4681 C.3     1  UNL111      0.0479
    294 CL         18.5593   33.4947   10.1409 Cl      1  UNL111     -0.1204
    295 H          17.5230   33.6334    8.0104 H       1  UNL111      0.0479
    296 H          19.1960   33.1188    7.9115 H       1  UNL111      0.0479
    297 C          15.3979   32.0625    9.0805 C.3     1  UNL111     -0.0021
    298 C          14.1391   31.9201    8.2469 C.ar    1  UNL111     -0.0430
    299 H          15.7107   33.1070    8.9964 H       1  UNL111      0.0362
    300 H          15.1627   31.9013   10.1412 H       1  UNL111      0.0362
    301 C          14.1834   31.6439    6.8721 C.ar    1  UNL111     -0.0577
    302 C          13.0071   31.5552    6.1224 C.ar    1  UNL111     -0.0538
    303 C          11.7598   31.7732    6.7204 C.ar    1  UNL111     -0.0179
    304 C          11.7206   32.0592    8.0938 C.ar    1  UNL111     -0.0538
    305 C          12.8932   32.1347    8.8478 C.ar    1  UNL111     -0.0577
    306 H          15.1357   31.4941    6.3672 H       1  UNL111      0.0621
    307 C          10.5299   31.7920    5.9216 C.ar    1  UNL111     -0.0176
    308 C          10.0519   30.6517    5.2510 C.ar    1  UNL111     -0.0503
    309 C           9.8089   32.9886    5.8082 C.ar    1  UNL111     -0.0537
    310 C           8.8641   30.6929    4.4966 C.ar    1  UNL111     -0.0390
    311 C           8.1608   31.9053    4.4061 C.ar    1  UNL111     -0.0395
    312 C           8.6428   33.0482    5.0551 C.ar    1  UNL111     -0.0574
    313 H          10.6063   29.7177    5.3275 H       1  UNL111      0.0627
    314 H          10.1661   33.8909    6.3006 H       1  UNL111      0.0624
    315 H           8.1098   33.9931    4.9758 H       1  UNL111      0.0621
    316 C           6.9093   32.0227    3.5829 C.3     1  UNL111     -0.0019
    317 H           6.1975   32.6556    4.1291 H       1  UNL111      0.0362
    318 H           7.1571   32.5212    2.6376 H       1  UNL111      0.0362
    319 C           8.3784   29.4555    3.7620 C.3     1  UNL111     -0.0019
    320 H           9.0148   29.3026    2.8822 H       1  UNL111      0.0362
    321 H           8.4967   28.5941    4.4320 H       1  UNL111      0.0362
    322 H          12.8248   32.3743    9.9068 H       1  UNL111      0.0621
    323 H          10.7659   32.2414    8.5840 H       1  UNL111      0.0624
    324 H          13.0729   31.3495    5.0561 H       1  UNL111      0.0624
    325 H           8.8968   25.0816  -23.3661 H       2  UNL22       0.0621
    326 H           7.1226   -5.6604  -23.2964 H       2  UNL22       0.0621
    327 H           8.7312   27.5449  -22.9742 H       2  UNL22       0.0478
    328 H           5.7700   -0.1694  -23.6841 H       2  UNL22       0.0362
    329 H           7.7667   -3.3145  -22.9506 H       2  UNL22       0.0624
    330 C           8.1713   24.9556  -22.5650 C.ar    2  UNL22      -0.0569
    331 H           7.8249   22.8907  -23.0576 H       2  UNL22       0.0624
    332 C           6.7169   -5.1211  -22.4428 C.ar    2  UNL22      -0.0569
    333 C           7.0843   -3.7862  -22.2460 C.ar    2  UNL22      -0.0537
    334 C           7.5667   23.7083  -22.3865 C.ar    2  UNL22      -0.0537
    335 C           5.4575   -0.7738  -22.8208 C.3     2  UNL22      -0.0018
    336 H          12.1579   11.3245  -21.0912 H       2  UNL22       0.0362
    337 H           5.4691   -1.7976  -23.2091 H       2  UNL22       0.0362
    338 H           2.3797    4.7859  -24.3145 H       2  UNL22       0.0621
    339 C           8.4922   27.3727  -21.9195 C.3     2  UNL22       0.0476
    340 H          14.8842    6.7668  -19.9331 H       2  UNL22       0.0621
    341 H           1.2921   19.4874  -24.7781 H       2  UNL22       0.0621
    342 H           0.5098   17.1750  -25.0097 H       2  UNL22       0.0624
    343 H          17.5789    9.9790  -18.9366 H       2  UNL22       0.0624
    344 C           1.6121   18.7464  -24.0488 C.ar    2  UNL22      -0.0574
    345 H          19.8465    9.7036  -18.0977 H       2  UNL22       0.0621
    346 C           1.1595   17.4292  -24.1750 C.ar    2  UNL22      -0.0537
    347 H          13.3938    4.8363  -20.2264 H       2  UNL22       0.0624
    348 H           5.4472   -7.4519  -22.8196 H       2  UNL22       0.0478
    349 H           4.1121    1.5227  -23.3687 H       2  UNL22       0.0623
    350 H           3.2014   20.9020  -23.8908 H       2  UNL22       0.0362
    351 C           2.7527    4.8011  -23.2926 C.ar    2  UNL22      -0.0577
    352 C          11.9137   11.8866  -20.1774 C.3     2  UNL22      -0.0018
    353 CL          9.9936   27.4810  -20.9804 Cl      2  UNL22      -0.1204
    354 H          11.7022   21.1707  -20.8633 H       2  UNL22       0.0624
    355 C           7.8450   26.0299  -21.7272 C.ar    2  UNL22      -0.0327
    356 H           3.5767    6.7758  -23.5109 H       2  UNL22       0.0624
    357 C          14.0885    6.6031  -19.2091 C.ar    2  UNL22      -0.0577
    358 H           1.6432    2.5360  -24.0108 H       2  UNL22       0.0362
    359 C          17.8066   10.3389  -17.9349 C.ar    2  UNL22      -0.0538
    360 C           3.4947    0.8170  -22.8139 C.ar    2  UNL22      -0.0542
    361 H          17.6197   19.3626  -18.6214 H       2  UNL22       0.0362
    362 H          11.9862   12.9313  -20.5086 H       2  UNL22       0.0362
    363 C          19.1213   10.2088  -17.4607 C.ar    2  UNL22      -0.0577
    364 C           6.4781   -0.5775  -21.7120 C.ar    2  UNL22      -0.0351
    365 C           3.4387    5.9314  -22.8387 C.ar    2  UNL22      -0.0538
    366 C          13.2329    5.5041  -19.3819 C.ar    2  UNL22      -0.0538
    367 H           8.2553    8.6926  -21.6527 H       2  UNL22       0.0362
    368 C           4.0354   -0.4205  -22.4476 C.ar    2  UNL22      -0.0427
    369 C           6.9384    0.7338  -21.4417 C.ar    2  UNL22      -0.0539
    370 C           2.0285   13.9931  -23.2519 C.ar    2  UNL22      -0.0538
    371 C          10.9575   20.7148  -20.2113 C.ar    2  UNL22      -0.0535
    372 H           6.5399    1.5652  -22.0227 H       2  UNL22       0.0623
    373 C           5.4591   -7.1970  -21.7547 C.3     2  UNL22       0.0476
    374 H          10.5312    9.6168  -20.6874 H       2  UNL22       0.0623
    375 C           1.6171   12.6598  -23.2776 C.ar    2  UNL22      -0.0577
    376 H          25.0392    6.6420  -15.5576 H       2  UNL22       0.0621
    377 C           2.9507   20.5363  -22.8868 C.3     2  UNL22      -0.0019
    378 C           5.8468   -5.7591  -21.5494 C.ar    2  UNL22      -0.0327
    379 C           2.4771   19.1086  -23.0070 C.ar    2  UNL22      -0.0395
    380 H           4.5848   22.6815  -22.8018 H       2  UNL22       0.0627
    381 C           1.5474   16.4441  -23.2576 C.ar    2  UNL22      -0.0176
    382 C           1.1060   15.0450  -23.3813 C.ar    2  UNL22      -0.0179
    383 H           8.5449    2.8985  -21.1653 H       2  UNL22       0.0362
    384 H          15.7620   22.5812  -18.8660 H       2  UNL22       0.0362
    385 C          13.0157   11.5981  -19.1738 C.ar    2  UNL22      -0.0427
    386 C          14.8718   18.3921  -18.6042 C.ar    2  UNL22      -0.0574
    387 H          24.4014    9.0103  -15.6907 H       2  UNL22       0.0624
    388 H           0.4361   10.3040  -24.0487 H       2  UNL22       0.0362
    389 C           9.8977   10.3629  -20.2075 C.ar    2  UNL22      -0.0539
    390 C           4.8810   21.9286  -22.0712 C.ar    2  UNL22      -0.0500
    391 H           3.0863   14.2073  -23.1125 H       2  UNL22       0.0624
    392 C          13.5228   18.4242  -19.0006 C.ar    2  UNL22      -0.0537
    393 C           6.5900   -3.0548  -21.1559 C.ar    2  UNL22      -0.0176
    394 H           7.8249   28.1794  -21.5984 H       2  UNL22       0.0478
    395 C           1.6766    2.5467  -22.9130 C.3     2  UNL22      -0.0018
    396 H           9.4219   22.0227  -20.9360 H       2  UNL22       0.0621
    397 C          16.9833   19.5155  -17.7416 C.3     2  UNL22      -0.0019
    398 C          13.4002   10.2855  -18.8594 C.ar    2  UNL22      -0.0542
    399 H          21.4904    9.9808  -16.5479 H       2  UNL22       0.0362
    400 C           6.9824   -1.6512  -20.9464 C.ar    2  UNL22      -0.0141
    401 C           6.6358   23.4999  -21.3587 C.ar    2  UNL22      -0.0176
    402 C           0.2664   12.3390  -23.4443 C.ar    2  UNL22      -0.0430
    403 C          15.5378   19.5604  -18.1948 C.ar    2  UNL22      -0.0395
    404 C           9.6523   21.2053  -20.2586 C.ar    2  UNL22      -0.0577
    405 CL          6.6052   -8.2758  -20.9355 Cl      2  UNL22      -0.1204
    406 H          15.8711    8.3265  -18.4370 H       2  UNL22       0.0362
    407 C          13.7963   12.6453  -18.6749 C.ar    2  UNL22      -0.0577
    408 C          -0.2401   14.7134  -23.5914 C.ar    2  UNL22      -0.0538
    409 C          10.4702   11.5949  -19.8065 C.ar    2  UNL22      -0.0351
    410 H           2.3577   11.8755  -23.1401 H       2  UNL22       0.0621
    411 C           7.9504    8.7923  -20.6029 C.3     2  UNL22      -0.0019
    412 C           2.5145    3.7182  -22.4350 C.ar    2  UNL22      -0.0430
    413 C          24.2955    7.0298  -14.8644 C.ar    2  UNL22      -0.0569
    414 H          15.3970   17.4388  -18.6068 H       2  UNL22       0.0621
    415 C          -0.6540   13.3778  -23.6306 C.ar    2  UNL22      -0.0577
    416 H          21.6778   21.4095  -16.4475 H       2  UNL22       0.0624
    417 H           6.4709    6.7431  -21.5690 H       2  UNL22       0.0627
    418 C           2.1737    1.1807  -22.4747 C.ar    2  UNL22      -0.0351
    419 C          12.8032   19.6221  -18.9791 C.ar    2  UNL22      -0.0173
    420 H           9.2903   14.8093  -20.6610 H       2  UNL22       0.0624
    421 C           4.1545   20.7328  -21.9957 C.ar    2  UNL22      -0.0390
    422 C          23.9234    8.3727  -14.9487 C.ar    2  UNL22      -0.0537
    423 C           7.9007    0.9981  -20.4498 C.ar    2  UNL22      -0.0393
    424 C          -0.1884   10.8992  -23.3686 C.3     2  UNL22      -0.0018
    425 C          14.8444   20.7736  -18.2326 C.ar    2  UNL22      -0.0390
    426 H          13.0382   17.4988  -19.3030 H       2  UNL22       0.0624
    427 C          14.5799    9.9990  -18.1214 C.ar    2  UNL22      -0.0351
    428 C           8.3648    2.4202  -20.1942 C.3     2  UNL22      -0.0019
    429 H          12.7941    9.4683  -19.2468 H       2  UNL22       0.0623
    430 C          13.4972   20.7880  -18.6097 C.ar    2  UNL22      -0.0503
    431 C          15.5142   22.0827  -17.9207 C.3     2  UNL22      -0.0019
    432 C          14.9729   12.3884  -17.9587 C.ar    2  UNL22      -0.0535
    433 C           5.8435    7.4915  -21.0856 C.ar    2  UNL22      -0.0500
    434 C           5.9642   22.2008  -21.2119 C.ar    2  UNL22      -0.0141
    435 C          11.3573   19.7530  -19.2585 C.ar    2  UNL22      -0.0144
    436 C          14.9791    8.5533  -17.8404 C.3     2  UNL22      -0.0018
    437 C          15.4211   11.0767  -17.7067 C.ar    2  UNL22      -0.0144
    438 H          13.5349   13.6781  -18.8989 H       2  UNL22       0.0621
    439 C           8.5176   10.0917  -20.0738 C.ar    2  UNL22      -0.0393
    440 CL         23.2449    3.7262  -14.8278 Cl      2  UNL22      -0.1204
    441 C           9.7474   14.9967  -19.6906 C.ar    2  UNL22      -0.0538
    442 C           3.2273   -1.3169  -21.7455 C.ar    2  UNL22      -0.0577
    443 C          16.7966   10.9106  -17.1500 C.ar    2  UNL22      -0.0176
    444 C          13.9634    7.4463  -18.0943 C.ar    2  UNL22      -0.0430
    445 C          10.3173    3.7929  -19.3108 C.ar    2  UNL22      -0.0503
    446 C          19.5027   10.6623  -16.1834 C.ar    2  UNL22      -0.0430
    447 C          17.4690   20.7529  -17.0070 C.ar    2  UNL22      -0.0390
    448 C           2.8614   18.1421  -22.0686 C.ar    2  UNL22      -0.0390
    449 C          20.8724   10.2357  -15.6754 C.3     2  UNL22      -0.0018
    450 C           2.3848   16.8291  -22.1971 C.ar    2  UNL22      -0.0503
    451 C           6.9199   25.8252  -20.6949 C.ar    2  UNL22      -0.0569
    452 C           3.8949    6.0070  -21.5156 C.ar    2  UNL22      -0.0176
    453 H           9.9504    4.6361  -19.8933 H       2  UNL22       0.0627
    454 H          28.4297   20.9123  -13.5940 H       2  UNL22       0.0621
    455 C           7.9218   -1.3696  -19.9368 C.ar    2  UNL22      -0.0500
    456 H          -1.2012   10.7902  -23.7734 H       2  UNL22       0.0362
    457 C          27.4044   20.6177  -13.3756 C.ar    2  UNL22      -0.0566
    458 C          16.7657   21.9653  -17.0975 C.ar    2  UNL22      -0.0395
    459 C           6.4433    8.6419  -20.5419 C.ar    2  UNL22      -0.0390
    460 C           9.6261    2.5588  -19.3608 C.ar    2  UNL22      -0.0390
    461 C          21.6120   21.6152  -15.3812 C.ar    2  UNL22      -0.0538
    462 C          12.2269    5.2173  -18.4486 C.ar    2  UNL22      -0.0179
    463 H          23.7406   21.5541  -15.1364 H       2  UNL22       0.0621
    464 H          -0.9911   15.4947  -23.6889 H       2  UNL22       0.0624
    465 H           9.6713   17.1143  -19.9735 H       2  UNL22       0.0621
    466 C           8.3883   -0.0672  -19.6875 C.ar    2  UNL22      -0.0390
    467 C          27.0866   19.2570  -13.3821 C.ar    2  UNL22      -0.0537
    468 H          27.8722   18.5411  -13.6175 H       2  UNL22       0.0624
    469 C           9.9618   16.3198  -19.2895 C.ar    2  UNL22      -0.0577
    470 C          18.6568   20.7117  -16.2526 C.ar    2  UNL22      -0.0503
    471 H          27.8009   23.1788  -13.5921 H       2  UNL22       0.0479
    472 H          -1.7116   13.1601  -23.7665 H       2  UNL22       0.0621
    473 H           4.4573   -7.3936  -21.3588 H       2  UNL22       0.0478
    474 H          22.9306   15.0201  -15.1706 H       2  UNL22       0.0362
    475 C          11.4685    3.9566  -18.5193 C.ar    2  UNL22      -0.0176
    476 H           2.1260   21.1436  -22.4934 H       2  UNL22       0.0362
    477 C           4.4576    7.2570  -20.9858 C.ar    2  UNL22      -0.0141
    478 C           6.3175   24.5761  -20.5184 C.ar    2  UNL22      -0.0537
    479 C           9.6329   12.5589  -19.2108 C.ar    2  UNL22      -0.0141
    480 H          15.5870   13.2357  -17.6566 H       2  UNL22       0.0624
    481 C           4.5261   19.7705  -21.0516 C.ar    2  UNL22      -0.0393
    482 C           5.3725   -5.0427  -20.4430 C.ar    2  UNL22      -0.0569
    483 H           1.7088    9.2356  -22.3951 H       2  UNL22       0.0623
    484 H           8.3976    7.9696  -20.0307 H       2  UNL22       0.0362
    485 H          12.9640   21.7394  -18.5918 H       2  UNL22       0.0627
    486 C          22.7883   21.7039  -14.6315 C.ar    2  UNL22      -0.0577
    487 H          -0.8891   -0.4004  -23.1260 H       2  UNL22       0.0624
    488 H          17.1016   18.6541  -17.0716 H       2  UNL22       0.0362
    489 C           5.7425   -3.7078  -20.2489 C.ar    2  UNL22      -0.0537
    490 C          21.8458   12.4840  -14.7935 C.ar    2  UNL22      -0.0539
    491 H           0.6490    2.7350  -22.5853 H       2  UNL22       0.0362
    492 C          21.7886   11.0678  -14.7827 C.ar    2  UNL22      -0.0351
    493 C           1.3641    0.2657  -21.7671 C.ar    2  UNL22      -0.0144
    494 H          25.2464    4.6705  -14.0054 H       2  UNL22       0.0478
    495 H           3.6072   -2.2932  -21.4596 H       2  UNL22       0.0621
    496 C           6.3213   21.2367  -20.2440 C.ar    2  UNL22      -0.0351
    497 C          17.2477   23.1082  -16.4485 C.ar    2  UNL22      -0.0574
    498 C          10.0547   13.9202  -18.8442 C.ar    2  UNL22      -0.0176
    499 C           8.6953   20.7358  -19.3618 C.ar    2  UNL22      -0.0427
    500 C          26.8690   23.0324  -13.0355 C.3     2  UNL22       0.0479
    501 C          24.1858    4.7726  -13.7504 C.3     2  UNL22       0.0476
    502 H          19.2112   19.7777  -16.1761 H       2  UNL22       0.0627
    503 C           2.9946    3.7831  -21.1192 C.ar    2  UNL22      -0.0577
    504 H          21.1446   13.0394  -15.4150 H       2  UNL22       0.0623
    505 C          10.0960    1.4782  -18.5969 C.ar    2  UNL22      -0.0395
    506 C           1.9132   -0.9787  -21.4118 C.ar    2  UNL22      -0.0535
    507 C          23.7434    6.2033  -13.8779 C.ar    2  UNL22      -0.0327
    508 C          26.4364   21.5879  -13.0714 C.ar    2  UNL22      -0.0293
    509 C           7.6958   11.0470  -19.4759 C.ar    2  UNL22      -0.0390
    510 C          19.1348   21.8520  -15.5820 C.ar    2  UNL22      -0.0176
    511 C           3.7455   18.4897  -20.8971 C.3     2  UNL22      -0.0019
    512 C          22.9896    8.9197  -14.0537 C.ar    2  UNL22      -0.0176
    513 C          22.9181   14.7271  -14.1133 C.3     2  UNL22      -0.0019
    514 C           5.6032   20.0272  -20.1905 C.ar    2  UNL22      -0.0539
    515 C           3.6913    4.9068  -20.6706 C.ar    2  UNL22      -0.0538
    516 C          11.9149    2.8586  -17.7697 C.ar    2  UNL22      -0.0537
    517 C          24.3927   16.7499  -13.5772 C.ar    2  UNL22      -0.0503
    518 C          22.8293   13.2049  -14.0535 C.ar    2  UNL22      -0.0393
    519 C           0.9769    9.4903  -21.6295 C.ar    2  UNL22      -0.0542
    520 C          18.4138   23.0486  -15.6954 C.ar    2  UNL22      -0.0537
    521 C          22.7722   10.3751  -14.0272 C.ar    2  UNL22      -0.0141
    522 C          10.3572   19.1580  -18.4573 C.ar    2  UNL22      -0.0351
    523 C          25.7976   18.8065  -13.0624 C.ar    2  UNL22      -0.0176
    524 C           9.3746    0.1533  -18.5697 C.3     2  UNL22      -0.0019
    525 C          -1.0906    0.1370  -22.2014 C.ar    2  UNL22      -0.0537
    526 H          26.1279   23.6934  -13.4932 H       2  UNL22       0.0479
    527 C          -0.1194   10.3218  -21.9625 C.ar    2  UNL22      -0.0351
    528 C           8.2653   12.2517  -19.0360 C.ar    2  UNL22      -0.0500
    529 C           5.6302    9.5953  -19.9187 C.ar    2  UNL22      -0.0393
    530 H           7.5558    2.9590  -19.6857 H       2  UNL22       0.0362
    531 H          14.8024   22.7156  -17.3745 H       2  UNL22       0.0362
    532 C          17.1820   11.3878  -15.8815 C.ar    2  UNL22      -0.0538
    533 H           8.3108   -2.1927  -19.3367 H       2  UNL22       0.0627
    534 H          23.7232   17.3580  -14.1841 H       2  UNL22       0.0627
    535 H          20.6610    9.2911  -15.1565 H       2  UNL22       0.0362
    536 C          18.5097   11.2566  -15.3984 C.ar    2  UNL22      -0.0577
    537 C          11.2386    1.6395  -17.8025 C.ar    2  UNL22      -0.0574
    538 C          24.1326   15.3660  -13.4416 C.ar    2  UNL22      -0.0390
    539 H           2.6726   16.0906  -21.4498 H       2  UNL22       0.0627
    540 C          25.5031   17.3650  -12.9531 C.ar    2  UNL22      -0.0176
    541 H          10.1263   -0.6457  -18.6153 H       2  UNL22       0.0362
    542 C          20.3647   21.8332  -14.7832 C.ar    2  UNL22      -0.0179
    543 C          12.9205    7.1986  -17.1916 C.ar    2  UNL22      -0.0577
    544 H           4.4594   17.6693  -20.7480 H       2  UNL22       0.0362
    545 H          16.7147   24.0531  -16.5278 H       2  UNL22       0.0621
    546 C           7.3839   21.4705  -19.1932 C.3     2  UNL22      -0.0018
    547 H           6.6575   26.6383  -20.0211 H       2  UNL22       0.0621
    548 C           3.6390    8.2116  -20.3349 C.ar    2  UNL22      -0.0351
    549 C          12.0660    6.0982  -17.3674 C.ar    2  UNL22      -0.0538
    550 H          15.2811    8.4727  -16.7874 H       2  UNL22       0.0362
    551 C          10.4958   16.6082  -18.0273 C.ar    2  UNL22      -0.0430
    552 C           9.0362   19.6638  -18.5222 C.ar    2  UNL22      -0.0542
    553 C          23.7391   12.4906  -13.2681 C.ar    2  UNL22      -0.0390
    554 C          23.6939   11.0980  -13.2575 C.ar    2  UNL22      -0.0500
    555 C          -0.0267    0.5520  -21.3877 C.ar    2  UNL22      -0.0176
    556 C           6.2107   10.8440  -19.3016 C.3     2  UNL22      -0.0019
    557 CL         -5.6337   14.7675  -23.4236 Cl      2  UNL22      -0.1204
    558 C          25.1238   21.1606  -12.7759 C.ar    2  UNL22      -0.0382
    559 C          25.0061   14.6043  -12.6536 C.ar    2  UNL22      -0.0395
    560 C           4.2401    9.3751  -19.8237 C.ar    2  UNL22      -0.0539
    561 C          24.8330   19.7751  -12.7614 C.ar    2  UNL22      -0.0502
    562 C          26.3467   16.5645  -12.1715 C.ar    2  UNL22      -0.0537
    563 C          10.6323   14.2020  -17.6022 C.ar    2  UNL22      -0.0538
    564 H           5.6963   11.7057  -19.7473 H       2  UNL22       0.0362
    565 H          12.8047    2.9513  -17.1492 H       2  UNL22       0.0624
    566 C          -2.4156    0.3971  -21.8376 C.ar    2  UNL22      -0.0569
    567 C          10.6382   18.0230  -17.4846 C.3     2  UNL22      -0.0018
    568 H           7.6106   22.5377  -19.0875 H       2  UNL22       0.0362
    569 H          18.7710   23.9509  -15.2030 H       2  UNL22       0.0624
    570 C          26.1041   15.2063  -12.0229 C.ar    2  UNL22      -0.0574
    571 H          25.7516   12.6332  -12.6297 H       2  UNL22       0.0362
    572 C          22.7440   21.9801  -13.2567 C.ar    2  UNL22      -0.0430
    573 C          24.7976   13.1393  -12.4256 C.3     2  UNL22      -0.0019
    574 H           4.7149   -5.5198  -19.7190 H       2  UNL22       0.0621
    575 C          22.7760    6.7341  -13.0126 C.ar    2  UNL22      -0.0569
    576 H           5.5889   24.4449  -19.7207 H       2  UNL22       0.0624
    577 H           2.8153    2.9648  -20.4247 H       2  UNL22       0.0621
    578 H          -3.2193    0.0519  -22.4849 H       2  UNL22       0.0621
    579 H           1.3081   -1.7006  -20.8651 H       2  UNL22       0.0624
    580 C          22.4081    8.0806  -13.0955 C.ar    2  UNL22      -0.0537
    581 C          10.8506   15.5278  -17.2003 C.ar    2  UNL22      -0.0577
    582 H           5.3582   -3.1711  -19.3832 H       2  UNL22       0.0624
    583 H           5.8706   19.2822  -19.4418 H       2  UNL22       0.0623
    584 H          11.6105    0.8124  -17.2016 H       2  UNL22       0.0621
    585 C           2.1787    7.9166  -20.0219 C.3     2  UNL22      -0.0018
    586 C          -3.3631   10.9001  -21.9861 C.ar    2  UNL22      -0.0537
    587 C           1.1294    8.9595  -20.3413 C.ar    2  UNL22      -0.0427
    588 H          22.0165   15.1386  -13.6441 H       2  UNL22       0.0362
    589 H          -3.2980    9.8937  -22.3953 H       2  UNL22       0.0624
    590 CL         27.1642   23.5547  -11.3627 Cl      2  UNL22      -0.1204
    591 H           7.6159   13.0009  -18.5809 H       2  UNL22       0.0627
    592 H           1.8303    7.0100  -20.5268 H       2  UNL22       0.0362
    593 H          24.4348   10.5521  -12.6713 H       2  UNL22       0.0627
    594 H          24.0627    4.4134  -12.7232 H       2  UNL22       0.0478
    595 C          24.0028   22.1225  -12.4231 C.3     2  UNL22      -0.0021
    596 C          -4.5138   11.6586  -22.2227 C.ar    2  UNL22      -0.0569
    597 C          -1.0912   10.6169  -20.9766 C.ar    2  UNL22      -0.0144
    598 H           4.0296    4.9437  -19.6370 H       2  UNL22       0.0624
    599 H          27.1966   17.0027  -11.6514 H       2  UNL22       0.0624
    600 H          11.6321   18.1449  -17.0399 H       2  UNL22       0.0362
    601 H           3.1184   18.5699  -20.0005 H       2  UNL22       0.0362
    602 H          -5.3146   11.2310  -22.8228 H       2  UNL22       0.0621
    603 H          16.4389   11.8573  -15.2386 H       2  UNL22       0.0624
    604 C          -2.2971   11.4201  -21.2367 C.ar    2  UNL22      -0.0176
    605 H          18.7385   11.5919  -14.3887 H       2  UNL22       0.0621
    606 C          20.3255   22.1192  -13.4098 C.ar    2  UNL22      -0.0538
    607 H          24.3156   23.1670  -12.5072 H       2  UNL22       0.0362
    608 H           8.8397    0.0695  -17.6154 H       2  UNL22       0.0362
    609 H          12.7881    7.8387  -16.3215 H       2  UNL22       0.0621
    610 C          -0.3227    1.2256  -20.1943 C.ar    2  UNL22      -0.0537
    611 H          26.7755   14.6153  -11.4033 H       2  UNL22       0.0621
    612 H          23.8301   19.4500  -12.4831 H       2  UNL22       0.0627
    613 H          10.8765   13.3895  -16.9204 H       2  UNL22       0.0624
    614 H           8.2818   19.2569  -17.8498 H       2  UNL22       0.0623
    615 H          11.2964    5.9039  -16.6224 H       2  UNL22       0.0624
    616 C          -4.6332   12.9520  -21.6985 C.ar    2  UNL22      -0.0327
    617 H           3.6226   10.1078  -19.3044 H       2  UNL22       0.0623
    618 C          21.4981   22.1947  -12.6558 C.ar    2  UNL22      -0.0577
    619 H           6.9493   21.2108  -18.2169 H       2  UNL22       0.0362
    620 C          -5.8600   13.7773  -21.9677 C.3     2  UNL22       0.0476
    621 C          -2.4239   12.7147  -20.7126 C.ar    2  UNL22      -0.0537
    622 C          -2.7067    1.0840  -20.6515 C.ar    2  UNL22      -0.0327
    623 H           5.9938   10.8271  -18.2262 H       2  UNL22       0.0362
    624 C          -3.5742   13.4750  -20.9450 C.ar    2  UNL22      -0.0569
    625 H          11.2700   15.7124  -16.2130 H       2  UNL22       0.0621
    626 H          22.3198    6.1090  -12.2478 H       2  UNL22       0.0621
    627 H           9.9410   18.1180  -16.6400 H       2  UNL22       0.0362
    628 H          21.6918    8.4841  -12.3827 H       2  UNL22       0.0624
    629 C           0.1750    9.2809  -19.3706 C.ar    2  UNL22      -0.0577
    630 H          24.5452   12.9835  -11.3692 H       2  UNL22       0.0362
    631 C          -0.9127   10.0961  -19.6834 C.ar    2  UNL22      -0.0535
    632 C          -1.6469    1.4879  -19.8286 C.ar    2  UNL22      -0.0569
    633 H           0.4833    1.5460  -19.5371 H       2  UNL22       0.0624
    634 H          -6.7380   13.1407  -22.1182 H       2  UNL22       0.0478
    635 H           2.1439    7.6760  -18.9502 H       2  UNL22       0.0362
    636 H          -4.7680    1.4804  -21.1336 H       2  UNL22       0.0478
    637 H          -1.6090   13.1472  -20.1347 H       2  UNL22       0.0624
    638 H          19.3708   22.3014  -12.9196 H       2  UNL22       0.0624
    639 H          23.7676   21.9613  -11.3624 H       2  UNL22       0.0362
    640 C          -4.1311    1.3518  -20.2521 C.3     2  UNL22       0.0476
    641 H          -3.6300   14.4837  -20.5407 H       2  UNL22       0.0621
    642 H          -6.0767   14.4436  -21.1261 H       2  UNL22       0.0478
    643 H          21.4297   22.4343  -11.5968 H       2  UNL22       0.0621
    644 H           0.2467    8.8672  -18.3671 H       2  UNL22       0.0621
    645 H          -1.8438    2.0043  -18.8912 H       2  UNL22       0.0621
    646 H          -1.6501   10.3048  -18.9099 H       2  UNL22       0.0624
    647 CL         -4.7741    0.0053  -19.2914 Cl      2  UNL22      -0.1204
    648 H          -4.2066    2.2670  -19.6557 H       2  UNL22       0.0478
@<TRIPOS>BOND
     1     1     2   ar
     2     2     3   ar
     3     3     4   ar
     4     5     4   ar
     5     6     5   ar
     6     6     1   ar
     7     6     7    1
     8     5     8    1
     9     2     9    1
    10     3    10    1
    11    11     4    1
    12    12    11    1
    13    11    13    1
    14    11    14    1
    15    15    17   ar
    16    15    20    1
    17    16    18   ar
    18    16    15   ar
    19    17    19   ar
    20    18    21   ar
    21    19    21   ar
    22    19     1    1
    23    21    22    1
    24    17    23    1
    25    23    24    1
    26    23    25    1
    27    23    26    1
    28    24    27   ar
    29    27    28   ar
    30    28    29   ar
    31    29    30   ar
    32    31    30   ar
    33    31    24   ar
    34    27    32    1
    35    28    33    1
    36    31    34    1
    37    29    35    1
    38    35    36   ar
    39    36    37   ar
    40    37    38   ar
    41    35    39   ar
    42    39    40   ar
    43    40    38   ar
    44    36    41    1
    45    37    42    1
    46    39    43    1
    47    40    44    1
    48    38    45    1
    49    45    46    1
    50    45    47    1
    51    45    48    1
    52    18    49    1
    53    49    50    1
    54    49    51    1
    55    49    52    1
    56    16    53    1
    57    53    54    1
    58    53    55    1
    59    53    56    1
    60    50    54   ar
    61    50    57   ar
    62    57    58   ar
    63    54    59   ar
    64    59    60   ar
    65    58    60   ar
    66    59    61    1
    67    57    62    1
    68    58    63    1
    69    60    64    1
    70    64    65   ar
    71    65    66   ar
    72    66    67   ar
    73    68    67   ar
    74    65    69    1
    75    66    70    1
    76    64    71   ar
    77    71    68   ar
    78    68    72    1
    79    71    73    1
    80    30    74    1
    81    75    74    1
    82    74    76    1
    83    74    77    1
    84    78    75   ar
    85    78    79   ar
    86    75    80   ar
    87    80    81   ar
    88    82    81   ar
    89    79    82   ar
    90    78    83    1
    91    79    84    1
    92    80    85    1
    93    81    86    1
    94    87    82    1
    95    88    87   ar
    96    88    89   ar
    97    87    90   ar
    98    90    91   ar
    99    89    92   ar
   100    92    91   ar
   101    88    93    1
   102    91    94    1
   103    90    95    1
   104    95    96    1
   105    95    97    1
   106    95    98    1
   107    96    99   ar
   108    99   100   ar
   109   100   101   ar
   110   101   102   ar
   111   103   102   ar
   112    96   103   ar
   113    99   104    1
   114   100   105    1
   115   103   106    1
   116   101   107    1
   117   107   108   ar
   118   108   109   ar
   119   109   110   ar
   120   110   111   ar
   121   112   111   ar
   122   107   112   ar
   123   108   113    1
   124   112   114    1
   125   111   115    1
   126   109   116    1
   127   110   117    1
   128   118   117    1
   129   117   119    1
   130   117   120    1
   131   102   121    1
   132   122   121    1
   133   121   123    1
   134   121   124    1
   135   125   122   ar
   136   125   126   ar
   137   126   127   ar
   138   122   128   ar
   139   128   129   ar
   140   127   129   ar
   141   125   130    1
   142   126   131    1
   143   128   132    1
   144   129   133    1
   145   127   134    1
   146   135   134   ar
   147   135   136   ar
   148   134   137   ar
   149   137   138   ar
   150   139   136   ar
   151   138   139   ar
   152   135   140    1
   153   137   141    1
   154   138   142    1
   155   143   136    1
   156   144   145   ar
   157   139   146    1
   158   145   146    1
   159   146   147    1
   160   146   148    1
   161   143   144    1
   162   143   149    1
   163   143   150    1
   164   151   144   ar
   165   145   152   ar
   166   153   152   ar
   167   154   153   ar
   168   151   154   ar
   169   151   155    1
   170   152   156    1
   171   153   157    1
   172   158   157   ar
   173   158   159   ar
   174   157   160   ar
   175   161   160   ar
   176   162   161   ar
   177   159   162   ar
   178   158   163    1
   179   159   164    1
   180   160   165    1
   181   161   166    1
   182   167   162    1
   183   168   167    1
   184   167   169    1
   185   167   170    1
   186   171   154    1
   187   172    89    1
   188   173    92    1
   189   174   173    1
   190   173   175    1
   191   173   176    1
   192   177   172    1
   193   172   178    1
   194   172   179    1
   195   177   174   ar
   196   180   177   ar
   197   181   174   ar
   198   182   181   ar
   199   183   182   ar
   200   183   180   ar
   201   180   184    1
   202   181   185    1
   203   182   186    1
   204   187   186   ar
   205   186   188   ar
   206   189   188   ar
   207   190   189   ar
   208   191   187   ar
   209   191   190   ar
   210   191   192    1
   211   187   193    1
   212   188   194    1
   213   189   195    1
   214   190   196    1
   215   171   199    1
   216   171   200    1
   217   171   201    1
   218   198   199   ar
   219   197   199   ar
   220   197   202   ar
   221   202   203   ar
   222   203   204   ar
   223   198   204   ar
   224   198   205    1
   225   204   206    1
   226   197   207    1
   227   202   196    1
   228   196   208    1
   229   196   209    1
   230   203   210    1
   231   210   211   ar
   232   212   211   ar
   233   213   212   ar
   234   213   214   ar
   235   210   215   ar
   236   214   215   ar
   237   211   216    1
   238   212   217    1
   239   215   218    1
   240    67   219    1
   241   220   219    1
   242   219   221    1
   243   219   222    1
   244   220   223   ar
   245   224   223   ar
   246   224   225   ar
   247   220   226   ar
   248   225   227   ar
   249   227   226   ar
   250   226   228    1
   251   224   229    1
   252   225   230    1
   253   227   231    1
   254   183   231    1
   255   231   232    1
   256   231   233    1
   257   223   234    1
   258   235   234   ar
   259   235   236   ar
   260   237   236   ar
   261   237   238   ar
   262   238   239   ar
   263   239   234   ar
   264   235   240    1
   265   236   241    1
   266   238   242    1
   267   239   243    1
   268   237   244    1
   269   245   244    1
   270   244   246    1
   271   244   247    1
   272   248   245   ar
   273   248   249   ar
   274   250   249   ar
   275   250   251   ar
   276   251   252   ar
   277   245   252   ar
   278   252   253    1
   279   251   254    1
   280   248   255    1
   281   253   256   ar
   282   256   257   ar
   283   257   258   ar
   284   258   259   ar
   285   259   260   ar
   286   260   253   ar
   287   256   261    1
   288   257   262    1
   289   259   263    1
   290   260   264    1
   291   258   265    1
   292   265   266    1
   293   265   267    1
   294   265   268    1
   295   250   269    1
   296   270   269    1
   297   269   271    1
   298   269   272    1
   299   273   270   ar
   300   274   273    1
   301   249   274    1
   302   274   275    1
   303   274   276    1
   304   277   270   ar
   305   278   277   ar
   306   279   278   ar
   307   280   273   ar
   308   280   279   ar
   309   280   281    1
   310   278   282    1
   311   277   283    1
   312   279   284    1
   313   285   284   ar
   314   286   285   ar
   315   287   284   ar
   316   288   287   ar
   317   289   288   ar
   318   289   286   ar
   319   286   290    1
   320   285   291    1
   321   287   292    1
   322   289   293    1
   323   294   293    1
   324   293   295    1
   325   293   296    1
   326   288   297    1
   327   297   298    1
   328   297   299    1
   329   297   300    1
   330   301   298   ar
   331   301   302   ar
   332   303   302   ar
   333   303   304   ar
   334   298   305   ar
   335   305   304   ar
   336   301   306    1
   337   303   307    1
   338   307   308   ar
   339   307   309   ar
   340   308   310   ar
   341   311   310   ar
   342   311   312   ar
   343   309   312   ar
   344   308   313    1
   345   309   314    1
   346   312   315    1
   347   214   316    1
   348   316   311    1
   349   316   317    1
   350   316   318    1
   351   213   319    1
   352   319   310    1
   353   319   320    1
   354   319   321    1
   355   305   322    1
   356   304   323    1
   357   302   324    1
   358   330   355   ar
   359   330   325    1
   360   332   378   ar
   361   332   326    1
   362   333   332   ar
   363   333   393   ar
   364   333   329    1
   365   334   401   ar
   366   334   330   ar
   367   334   331    1
   368   335   368    1
   369   335   337    1
   370   335   328    1
   371   339   355    1
   372   339   394    1
   373   339   327    1
   374   344   379   ar
   375   344   341    1
   376   346   344   ar
   377   346   342    1
   378   351   365   ar
   379   351   338    1
   380   352   336    1
   381   352   362    1
   382   353   339    1
   383   355   451   ar
   384   357   444   ar
   385   357   340    1
   386   359   443   ar
   387   359   343    1
   388   360   418   ar
   389   360   368   ar
   390   360   349    1
   391   363   359   ar
   392   363   345    1
   393   364   400   ar
   394   364   335    1
   395   365   356    1
   396   366   357   ar
   397   366   347    1
   398   368   442   ar
   399   369   364   ar
   400   369   372    1
   401   370   382   ar
   402   370   391    1
   403   371   354    1
   404   373   378    1
   405   373   348    1
   406   373   473    1
   407   375   402   ar
   408   375   370   ar
   409   375   410    1
   410   377   476    1
   411   377   350    1
   412   379   448   ar
   413   379   377    1
   414   381   346   ar
   415   382   408   ar
   416   382   381    1
   417   385   398   ar
   418   385   352    1
   419   386   392   ar
   420   386   414    1
   421   389   439   ar
   422   389   374    1
   423   390   380    1
   424   392   426    1
   425   393   489   ar
   426   395   491    1
   427   395   358    1
   428   397   447    1
   429   397   361    1
   430   397   488    1
   431   398   429    1
   432   400   455   ar
   433   400   393    1
   434   401   478   ar
   435   402   424    1
   436   402   415   ar
   437   403   386   ar
   438   403   425   ar
   439   403   397    1
   440   404   499   ar
   441   404   371   ar
   442   404   396    1
   443   405   373    1
   444   407   385   ar
   445   407   438    1
   446   408   464    1
   447   409   479   ar
   448   409   389   ar
   449   409   352    1
   450   411   459    1
   451   411   367    1
   452   411   484    1
   453   412   395    1
   454   412   351   ar
   455   413   507   ar
   456   413   376    1
   457   415   408   ar
   458   415   472    1
   459   418   395    1
   460   419   392   ar
   461   419   430   ar
   462   421   377    1
   463   421   390   ar
   464   422   413   ar
   465   422   387    1
   466   423   466   ar
   467   423   369   ar
   468   423   428    1
   469   424   456    1
   470   424   388    1
   471   425   430   ar
   472   425   431    1
   473   427   436    1
   474   427   437   ar
   475   427   398   ar
   476   428   460    1
   477   428   530    1
   478   428   383    1
   479   430   485    1
   480   431   458    1
   481   431   531    1
   482   431   384    1
   483   432   437   ar
   484   432   407   ar
   485   432   480    1
   486   433   477   ar
   487   433   459   ar
   488   433   417    1
   489   434   390   ar
   490   434   401    1
   491   435   371   ar
   492   435   419    1
   493   436   406    1
   494   436   550    1
   495   437   443    1
   496   439   411    1
   497   439   509   ar
   498   441   420    1
   499   442   506   ar
   500   442   495    1
   501   444   436    1
   502   445   475   ar
   503   445   453    1
   504   446   536   ar
   505   446   363   ar
   506   446   449    1
   507   449   399    1
   508   449   535    1
   509   450   381   ar
   510   450   448   ar
   511   450   539    1
   512   451   478   ar
   513   451   547    1
   514   452   365   ar
   515   455   533    1
   516   457   467   ar
   517   457   454    1
   518   458   447   ar
   519   458   497   ar
   520   459   529   ar
   521   460   445   ar
   522   461   416    1
   523   462   366   ar
   524   462   549   ar
   525   466   455   ar
   526   466   524    1
   527   467   523   ar
   528   467   468    1
   529   469   441   ar
   530   469   465    1
   531   470   447   ar
   532   470   502    1
   533   475   462    1
   534   477   452    1
   535   477   548   ar
   536   478   576    1
   537   479   528   ar
   538   479   498    1
   539   481   421   ar
   540   482   378   ar
   541   482   574    1
   542   486   572   ar
   543   486   461   ar
   544   486   463    1
   545   489   482   ar
   546   489   582    1
   547   490   492   ar
   548   490   518   ar
   549   490   504    1
   550   492   449    1
   551   492   521   ar
   552   493   418   ar
   553   493   555    1
   554   496   434   ar
   555   497   545    1
   556   498   441   ar
   557   500   526    1
   558   500   471    1
   559   501   440    1
   560   501   594    1
   561   501   494    1
   562   503   412   ar
   563   503   515   ar
   564   503   577    1
   565   505   460   ar
   566   505   537   ar
   567   506   493   ar
   568   506   579    1
   569   507   575   ar
   570   507   501    1
   571   508   558   ar
   572   508   457   ar
   573   508   500    1
   574   509   556    1
   575   510   470   ar
   576   510   520   ar
   577   511   448    1
   578   511   481    1
   579   511   544    1
   580   511   601    1
   581   512   422   ar
   582   513   538    1
   583   513   474    1
   584   513   588    1
   585   514   481   ar
   586   514   496   ar
   587   514   583    1
   588   515   452   ar
   589   515   598    1
   590   516   475   ar
   591   516   565    1
   592   517   538   ar
   593   517   540   ar
   594   517   534    1
   595   518   513    1
   596   519   527   ar
   597   519   483    1
   598   520   497   ar
   599   520   569    1
   600   521   512    1
   601   522   435   ar
   602   522   567    1
   603   524   505    1
   604   524   541    1
   605   524   608    1
   606   525   566   ar
   607   525   487    1
   608   527   424    1
   609   528   509   ar
   610   528   591    1
   611   529   560   ar
   612   532   443   ar
   613   532   536   ar
   614   532   603    1
   615   536   605    1
   616   537   516   ar
   617   537   584    1
   618   538   559   ar
   619   540   562   ar
   620   540   523    1
   621   542   461   ar
   622   542   606   ar
   623   542   510    1
   624   543   444   ar
   625   543   609    1
   626   546   496    1
   627   546   499    1
   628   546   619    1
   629   546   568    1
   630   548   560   ar
   631   548   585    1
   632   549   543   ar
   633   549   615    1
   634   551   469   ar
   635   551   567    1
   636   552   499   ar
   637   552   522   ar
   638   552   614    1
   639   553   518   ar
   640   553   554   ar
   641   553   573    1
   642   554   521   ar
   643   554   593    1
   644   555   525   ar
   645   555   610   ar
   646   556   529    1
   647   556   623    1
   648   556   564    1
   649   557   620    1
   650   558   561   ar
   651   558   595    1
   652   559   573    1
   653   560   617    1
   654   561   523   ar
   655   561   612    1
   656   562   570   ar
   657   562   599    1
   658   563   498   ar
   659   563   613    1
   660   566   622   ar
   661   566   578    1
   662   567   600    1
   663   567   627    1
   664   570   559   ar
   665   570   611    1
   666   572   618   ar
   667   573   571    1
   668   573   630    1
   669   575   580   ar
   670   575   626    1
   671   580   512   ar
   672   580   628    1
   673   581   563   ar
   674   581   551   ar
   675   581   625    1
   676   585   587    1
   677   585   635    1
   678   585   592    1
   679   586   596   ar
   680   586   589    1
   681   587   629   ar
   682   587   519   ar
   683   590   500    1
   684   595   572    1
   685   595   607    1
   686   595   639    1
   687   596   616   ar
   688   596   602    1
   689   597   527   ar
   690   597   604    1
   691   604   586   ar
   692   604   621   ar
   693   606   638    1
   694   610   632   ar
   695   610   633    1
   696   616   624   ar
   697   616   620    1
   698   618   606   ar
   699   618   643    1
   700   620   642    1
   701   620   634    1
   702   621   624   ar
   703   621   637    1
   704   622   640    1
   705   624   641    1
   706   629   631   ar
   707   629   644    1
   708   631   597   ar
   709   631   646    1
   710   632   622   ar
   711   632   645    1
   712   640   647    1
   713   640   636    1
   714   640   648    1
