@<TRIPOS>MOLECULE
*****
 324 357 0 0 0
SMALL
GASTEIGER

@<TRIPOS>ATOM
      1 C          -2.0149    6.8852    0.3477 C.ar    1  UNL1       -0.0176
      2 C          -2.8624    6.2322    1.2547 C.ar    1  UNL1       -0.0537
      3 C          -3.2324    4.8973    1.0606 C.ar    1  UNL1       -0.0569
      4 C          -2.7581    4.1809   -0.0458 C.ar    1  UNL1       -0.0327
      5 C          -1.8880    4.8189   -0.9392 C.ar    1  UNL1       -0.0569
      6 C          -1.5206    6.1538   -0.7424 C.ar    1  UNL1       -0.0537
      7 H          -0.8382    6.6255   -1.4470 H       1  UNL1        0.0624
      8 H          -1.4823    4.2796   -1.7928 H       1  UNL1        0.0621
      9 H          -3.2467    6.7689    2.1204 H       1  UNL1        0.0624
     10 H          -3.8900    4.4202    1.7846 H       1  UNL1        0.0621
     11 C          -3.1458    2.7430   -0.2511 C.3     1  UNL1        0.0476
     12 CL         -1.9997    1.6642    0.5681 Cl      1  UNL1       -0.1204
     13 H          -3.1577    2.4881   -1.3160 H       1  UNL1        0.0478
     14 H          -4.1476    2.5464    0.1448 H       1  UNL1        0.0478
     15 C          -1.6665   10.6738    0.0619 C.ar    1  UNL1       -0.0539
     16 C          -0.7042   10.9381    1.0538 C.ar    1  UNL1       -0.0393
     17 C          -2.1268    9.3625   -0.2084 C.ar    1  UNL1       -0.0351
     18 C          -0.2166    9.8728    1.8161 C.ar    1  UNL1       -0.0390
     19 C          -1.6225    8.2888    0.5572 C.ar    1  UNL1       -0.0141
     20 H          -2.0650   11.5052   -0.5191 H       1  UNL1        0.0623
     21 C          -0.6831    8.5704    1.5668 C.ar    1  UNL1       -0.0500
     22 H          -0.2941    7.7473    2.1669 H       1  UNL1        0.0627
     23 C          -3.1474    9.1662   -1.3172 C.3     1  UNL1       -0.0018
     24 C          -4.5695    9.5195   -0.9440 C.ar    1  UNL1       -0.0427
     25 H          -3.1358    8.1424   -1.7055 H       1  UNL1        0.0362
     26 H          -2.8349    9.7706   -2.1805 H       1  UNL1        0.0362
     27 C          -5.3776    8.6231   -0.2419 C.ar    1  UNL1       -0.0577
     28 C          -6.6917    8.9613    0.0918 C.ar    1  UNL1       -0.0535
     29 C          -7.2408   10.2057   -0.2635 C.ar    1  UNL1       -0.0144
     30 C          -6.4312   11.1207   -0.9711 C.ar    1  UNL1       -0.0351
     31 C          -5.1102   10.7570   -1.3103 C.ar    1  UNL1       -0.0542
     32 H          -4.9977    7.6468    0.0440 H       1  UNL1        0.0621
     33 H          -7.2968    8.2394    0.6385 H       1  UNL1        0.0624
     34 H          -4.4928   11.4627   -1.8651 H       1  UNL1        0.0623
     35 C          -8.6316   10.4920    0.1159 C.ar    1  UNL1       -0.0176
     36 C          -9.6955   10.0770   -0.6978 C.ar    1  UNL1       -0.0537
     37 C         -11.0205   10.3371   -0.3340 C.ar    1  UNL1       -0.0569
     38 C         -11.3116   11.0240    0.8521 C.ar    1  UNL1       -0.0327
     39 C          -8.9276   11.1656    1.3093 C.ar    1  UNL1       -0.0537
     40 C         -10.2518   11.4279    1.6750 C.ar    1  UNL1       -0.0569
     41 H          -9.4940    9.5396   -1.6224 H       1  UNL1        0.0624
     42 H         -11.8242    9.9919   -0.9813 H       1  UNL1        0.0621
     43 H          -8.1216   11.4860    1.9665 H       1  UNL1        0.0624
     44 H         -10.4487   11.9443    2.6124 H       1  UNL1        0.0621
     45 C         -12.7360   11.2918    1.2515 C.3     1  UNL1        0.0476
     46 CL        -13.3790    9.9453    2.2122 Cl      1  UNL1       -0.1204
     47 H         -13.3729   11.4204    0.3700 H       1  UNL1        0.0478
     48 H         -12.8115   12.2070    1.8479 H       1  UNL1        0.0478
     49 C           0.7697   10.0933    2.9339 C.3     1  UNL1       -0.0019
     50 C           1.4911   11.4182    2.9067 C.ar    1  UNL1       -0.0395
     51 H           1.5214    9.2943    2.8883 H       1  UNL1        0.0362
     52 H           0.2348   10.0095    3.8882 H       1  UNL1        0.0362
     53 C          -0.2401   12.3602    1.3094 C.3     1  UNL1       -0.0019
     54 C           1.0212   12.4988    2.1428 C.ar    1  UNL1       -0.0390
     55 H          -1.0491   12.8990    1.8179 H       1  UNL1        0.0362
     56 H          -0.0600   12.8385    0.3383 H       1  UNL1        0.0362
     57 C           2.6337   11.5795    3.7011 C.ar    1  UNL1       -0.0574
     58 C           3.3100   12.7986    3.7339 C.ar    1  UNL1       -0.0537
     59 C           1.7124   13.7329    2.1928 C.ar    1  UNL1       -0.0503
     60 C           2.8636   13.8966    2.9843 C.ar    1  UNL1       -0.0176
     61 H           1.3455   14.5761    1.6103 H       1  UNL1        0.0627
     62 H           3.0056   10.7524    4.3020 H       1  UNL1        0.0621
     63 H           4.1998   12.8913    4.3544 H       1  UNL1        0.0624
     64 C           3.6220   15.1573    3.0550 C.ar    1  UNL1       -0.0179
     65 C           4.6280   15.4441    2.1217 C.ar    1  UNL1       -0.0538
     66 C           5.4836   16.5431    2.2945 C.ar    1  UNL1       -0.0577
     67 C           5.3585   17.3863    3.4093 C.ar    1  UNL1       -0.0430
     68 C           4.3156   17.1386    4.3120 C.ar    1  UNL1       -0.0577
     69 H           4.7889   14.7763    1.2772 H       1  UNL1        0.0624
     70 H           6.2793   16.7068    1.5705 H       1  UNL1        0.0621
     71 C           3.4611   16.0382    4.1362 C.ar    1  UNL1       -0.0538
     72 H           4.1832   17.7787    5.1821 H       1  UNL1        0.0621
     73 H           2.6915   15.8439    4.8812 H       1  UNL1        0.0624
     74 C          -6.9283   12.4867   -1.4094 C.3     1  UNL1       -0.0018
     75 C          -6.0904   13.6582   -0.9314 C.ar    1  UNL1       -0.0430
     76 H          -7.9559   12.6750   -1.0817 H       1  UNL1        0.0362
     77 H          -6.9617   12.4760   -2.5072 H       1  UNL1        0.0362
     78 C          -5.6103   13.7231    0.3844 C.ar    1  UNL1       -0.0577
     79 C          -4.9136   14.8468    0.8330 C.ar    1  UNL1       -0.0538
     80 C          -5.8522   14.7411   -1.7890 C.ar    1  UNL1       -0.0577
     81 C          -5.1662   15.8714   -1.3351 C.ar    1  UNL1       -0.0538
     82 C          -4.7100   15.9470   -0.0120 C.ar    1  UNL1       -0.0176
     83 H          -5.7896   12.9048    1.0789 H       1  UNL1        0.0621
     84 H          -4.5753   14.8837    1.8666 H       1  UNL1        0.0624
     85 H          -6.2252   14.7259   -2.8109 H       1  UNL1        0.0621
     86 H          -5.0282   16.7158   -2.0073 H       1  UNL1        0.0624
     87 C          -4.1473   17.1970    0.5178 C.ar    1  UNL1       -0.0141
     88 C          -2.7614   17.4315    0.4180 C.ar    1  UNL1       -0.0500
     89 C          -2.1616   18.5819    0.9617 C.ar    1  UNL1       -0.0390
     90 C          -4.9659   18.1516    1.1687 C.ar    1  UNL1       -0.0351
     91 C          -4.3648   19.3151    1.6799 C.ar    1  UNL1       -0.0539
     92 C          -2.9747   19.5353    1.5849 C.ar    1  UNL1       -0.0393
     93 H          -2.1340   16.6831   -0.0654 H       1  UNL1        0.0627
     94 H          -4.9823   20.0478    2.1992 H       1  UNL1        0.0623
     95 C          -6.4262   17.8566    1.4817 C.3     1  UNL1       -0.0018
     96 C          -7.4755   18.8995    1.1623 C.ar    1  UNL1       -0.0427
     97 H          -6.4610   17.6160    2.5534 H       1  UNL1        0.0362
     98 H          -6.7746   16.9500    0.9768 H       1  UNL1        0.0362
     99 C          -8.4299   19.2209    2.1330 C.ar    1  UNL1       -0.0577
    100 C          -9.5176   20.0361    1.8202 C.ar    1  UNL1       -0.0535
    101 C          -9.6961   20.5569    0.5270 C.ar    1  UNL1       -0.0144
    102 C          -8.7243   20.2618   -0.4589 C.ar    1  UNL1       -0.0351
    103 C          -7.6280   19.4303   -0.1259 C.ar    1  UNL1       -0.0542
    104 H          -8.3582   18.8072    3.1365 H       1  UNL1        0.0621
    105 H         -10.2550   20.2448    2.5937 H       1  UNL1        0.0624
    106 H          -6.8961   19.1756   -0.8915 H       1  UNL1        0.0623
    107 C         -10.9020   21.3601    0.2669 C.ar    1  UNL1       -0.0176
    108 C         -11.9680   20.8401   -0.4825 C.ar    1  UNL1       -0.0537
    109 C         -13.1187   21.5986   -0.7191 C.ar    1  UNL1       -0.0569
    110 C         -13.2381   22.8920   -0.1949 C.ar    1  UNL1       -0.0327
    111 C         -12.1791   23.4150    0.5586 C.ar    1  UNL1       -0.0569
    112 C         -11.0288   22.6547    0.7910 C.ar    1  UNL1       -0.0537
    113 H         -11.9029   19.8337   -0.8917 H       1  UNL1        0.0624
    114 H         -10.2139   23.0872    1.3689 H       1  UNL1        0.0624
    115 H         -12.2349   24.4237    0.9629 H       1  UNL1        0.0621
    116 H         -13.9195   21.1710   -1.3192 H       1  UNL1        0.0621
    117 C         -14.4649   23.7173   -0.4641 C.3     1  UNL1        0.0476
    118 CL        -14.2386   24.7075   -1.9200 Cl      1  UNL1       -0.1204
    119 H         -14.6816   24.3836    0.3775 H       1  UNL1        0.0478
    120 H         -15.3429   23.0807   -0.6146 H       1  UNL1        0.0478
    121 C          -8.7933   20.8392   -1.8650 C.3     1  UNL1       -0.0018
    122 C          -8.3385   22.2790   -1.9407 C.ar    1  UNL1       -0.0430
    123 H          -9.8061   20.7302   -2.2698 H       1  UNL1        0.0362
    124 H          -8.1688   20.2440   -2.5451 H       1  UNL1        0.0362
    125 C          -6.9878   22.5998   -1.7740 C.ar    1  UNL1       -0.0577
    126 C          -6.5764   23.9331   -1.7483 C.ar    1  UNL1       -0.0538
    127 C          -7.4989   24.9850   -1.8777 C.ar    1  UNL1       -0.0179
    128 C          -9.2589   23.3178   -2.1270 C.ar    1  UNL1       -0.0577
    129 C          -8.8450   24.6534   -2.0878 C.ar    1  UNL1       -0.0538
    130 H          -6.2472   21.8155   -1.6365 H       1  UNL1        0.0621
    131 H          -5.5186   24.1473   -1.6089 H       1  UNL1        0.0624
    132 H         -10.3165   23.1001   -2.2629 H       1  UNL1        0.0621
    133 H          -9.5960   25.4347   -2.1853 H       1  UNL1        0.0624
    134 C          -7.0575   26.3841   -1.7540 C.ar    1  UNL1       -0.0176
    135 C          -6.2201   26.7691   -0.6935 C.ar    1  UNL1       -0.0503
    136 C          -5.7435   28.0821   -0.5650 C.ar    1  UNL1       -0.0390
    137 C          -7.4454   27.3692   -2.6714 C.ar    1  UNL1       -0.0537
    138 C          -6.9928   28.6864   -2.5452 C.ar    1  UNL1       -0.0574
    139 C          -6.1278   29.0486   -1.5034 C.ar    1  UNL1       -0.0395
    140 H          -5.9323   26.0306    0.0538 H       1  UNL1        0.0627
    141 H          -8.0951   27.1150   -3.5061 H       1  UNL1        0.0624
    142 H          -7.3128   29.4274   -3.2745 H       1  UNL1        0.0621
    143 C          -4.8594   28.4297    0.6065 C.3     1  UNL1       -0.0019
    144 C          -4.0788   29.7105    0.4520 C.ar    1  UNL1       -0.0393
    145 C          -4.4504   30.6728   -0.4921 C.ar    1  UNL1       -0.0390
    146 C          -5.6542   30.4763   -1.3832 C.3     1  UNL1       -0.0019
    147 H          -6.4789   31.0836   -0.9898 H       1  UNL1        0.0362
    148 H          -5.4035   30.8420   -2.3872 H       1  UNL1        0.0362
    149 H          -4.1455   27.6093    0.7556 H       1  UNL1        0.0362
    150 H          -5.4865   28.5099    1.5031 H       1  UNL1        0.0362
    151 C          -3.0017   29.9672    1.3131 C.ar    1  UNL1       -0.0539
    152 C          -3.7239   31.8686   -0.5676 C.ar    1  UNL1       -0.0500
    153 C          -2.6407   32.1408    0.2917 C.ar    1  UNL1       -0.0141
    154 C          -2.2836   31.1767    1.2596 C.ar    1  UNL1       -0.0351
    155 H          -2.7343   29.2222    2.0618 H       1  UNL1        0.0623
    156 H          -4.0201   32.6215   -1.2982 H       1  UNL1        0.0627
    157 C          -1.9691   33.4399    0.1449 C.ar    1  UNL1       -0.0176
    158 C          -1.0382   33.6483   -0.8829 C.ar    1  UNL1       -0.0537
    159 C          -0.4336   34.8956   -1.0614 C.ar    1  UNL1       -0.0569
    160 C          -2.2874   34.5161    0.9852 C.ar    1  UNL1       -0.0537
    161 C          -1.6850   35.7652    0.8087 C.ar    1  UNL1       -0.0569
    162 C          -0.7599   35.9699   -0.2236 C.ar    1  UNL1       -0.0327
    163 H          -0.7800   32.8307   -1.5540 H       1  UNL1        0.0624
    164 H           0.2919   35.0216   -1.8625 H       1  UNL1        0.0621
    165 H          -3.0160   34.3849    1.7829 H       1  UNL1        0.0624
    166 H          -1.9474   36.5783    1.4825 H       1  UNL1        0.0621
    167 C          -0.1127   37.3127   -0.4159 C.3     1  UNL1        0.0476
    168 CL          1.3887   37.4210    0.5232 Cl      1  UNL1       -0.1204
    169 H          -0.7800   38.1194   -0.0948 H       1  UNL1        0.0478
    170 H           0.1263   37.4849   -1.4706 H       1  UNL1        0.0478
    171 C          -1.2210   31.4105    2.3104 C.3     1  UNL1       -0.0018
    172 C          -0.6545   18.7323    0.9007 C.3     1  UNL1       -0.0019
    173 C          -2.3942   20.7840    2.2020 C.3     1  UNL1       -0.0019
    174 C          -0.9091   20.9870    2.0277 C.ar    1  UNL1       -0.0390
    175 H          -2.6111   20.7671    3.2774 H       1  UNL1        0.0362
    176 H          -2.9086   21.6457    1.7563 H       1  UNL1        0.0362
    177 C          -0.0873   20.0317    1.4298 C.ar    1  UNL1       -0.0393
    178 H          -0.3496   18.6326   -0.1491 H       1  UNL1        0.0362
    179 H          -0.2073   17.9096    1.4729 H       1  UNL1        0.0362
    180 C           1.2928   20.3029    1.2961 C.ar    1  UNL1       -0.0539
    181 C          -0.3396   22.1917    2.4676 C.ar    1  UNL1       -0.0500
    182 C           1.0280   22.4989    2.2928 C.ar    1  UNL1       -0.0141
    183 C           1.8653   21.5349    1.6971 C.ar    1  UNL1       -0.0351
    184 H           1.9263   19.5568    0.8162 H       1  UNL1        0.0623
    185 H          -0.9890   22.9409    2.9227 H       1  UNL1        0.0627
    186 C           1.4498   23.8602    2.6594 C.ar    1  UNL1       -0.0176
    187 C           2.0274   24.1420    3.9014 C.ar    1  UNL1       -0.0538
    188 C           1.1425   24.9367    1.8130 C.ar    1  UNL1       -0.0538
    189 C           1.3569   26.2598    2.2141 C.ar    1  UNL1       -0.0577
    190 C           1.8909   26.5482    3.4763 C.ar    1  UNL1       -0.0430
    191 C           2.2457   25.4678    4.3033 C.ar    1  UNL1       -0.0577
    192 H           2.6651   25.6524    5.2906 H       1  UNL1        0.0621
    193 H           2.2716   23.3295    4.5832 H       1  UNL1        0.0624
    194 H           0.6854   24.7493    0.8426 H       1  UNL1        0.0624
    195 H           1.0664   27.0543    1.5301 H       1  UNL1        0.0621
    196 C           2.0333   27.9630    4.0190 C.3     1  UNL1       -0.0018
    197 C           0.4313   29.6038    2.9814 C.ar    1  UNL1       -0.0542
    198 C           1.0474   31.1453    1.2450 C.ar    1  UNL1       -0.0577
    199 C           0.0904   30.6758    2.1418 C.ar    1  UNL1       -0.0427
    200 H          -1.6556   31.1508    3.2867 H       1  UNL1        0.0362
    201 H          -0.9943   32.4777    2.4161 H       1  UNL1        0.0362
    202 C           1.7523   29.0980    3.0463 C.ar    1  UNL1       -0.0351
    203 C           2.7524   29.6930    2.2451 C.ar    1  UNL1       -0.0144
    204 C           2.3526   30.6548    1.2923 C.ar    1  UNL1       -0.0535
    205 H           0.8170   31.9627    0.5676 H       1  UNL1        0.0621
    206 H           3.0973   31.1107    0.6403 H       1  UNL1        0.0624
    207 H          -0.3231   29.1969    3.6538 H       1  UNL1        0.0623
    208 H           3.0272   28.0849    4.4637 H       1  UNL1        0.0362
    209 H           1.3361   28.0580    4.8636 H       1  UNL1        0.0362
    210 C           4.1983   29.5621    2.5245 C.ar    1  UNL1       -0.0173
    211 C           4.9179   28.3642    2.5030 C.ar    1  UNL1       -0.0537
    212 C           6.2669   28.3321    2.8994 C.ar    1  UNL1       -0.0574
    213 C           6.9329   29.5004    3.3088 C.ar    1  UNL1       -0.0395
    214 C           6.2395   30.7136    3.2710 C.ar    1  UNL1       -0.0390
    215 C           4.8923   30.7280    2.8939 C.ar    1  UNL1       -0.0503
    216 H           4.4333   27.4388    2.2006 H       1  UNL1        0.0624
    217 H           6.7921   27.3788    2.8968 H       1  UNL1        0.0621
    218 H           4.3591   31.6794    2.9118 H       1  UNL1        0.0627
    219 C           6.3742   18.4933    3.6632 C.3     1  UNL1       -0.0018
    220 C           5.9750   19.9390    3.3822 C.ar    1  UNL1       -0.0351
    221 H           7.2662   18.2665    3.0666 H       1  UNL1        0.0362
    222 H           6.6762   18.4127    4.7162 H       1  UNL1        0.0362
    223 C           6.8162   21.0167    3.7969 C.ar    1  UNL1       -0.0144
    224 C           6.3680   22.3284    3.5449 C.ar    1  UNL1       -0.0535
    225 C           5.1914   22.5853    2.8287 C.ar    1  UNL1       -0.0577
    226 C           4.7953   20.2255    2.6442 C.ar    1  UNL1       -0.0542
    227 C           4.4108   21.5381    2.3298 C.ar    1  UNL1       -0.0427
    228 H           4.1892   19.4083    2.2568 H       1  UNL1        0.0623
    229 H           6.9821   23.1757    3.8470 H       1  UNL1        0.0624
    230 H           4.9300   23.6181    2.6047 H       1  UNL1        0.0621
    231 C           3.3088   21.8266    1.3262 C.3     1  UNL1       -0.0018
    232 H           3.5530   21.2645    0.4124 H       1  UNL1        0.0362
    233 H           3.3813   22.8713    0.9950 H       1  UNL1        0.0362
    234 C           8.1917   20.8506    4.3536 C.ar    1  UNL1       -0.0176
    235 C           8.5771   21.3278    5.6221 C.ar    1  UNL1       -0.0538
    236 C           9.9048   21.1966    6.1052 C.ar    1  UNL1       -0.0577
    237 C          10.8978   20.6023    5.3202 C.ar    1  UNL1       -0.0430
    238 C          10.5164   20.1488    4.0429 C.ar    1  UNL1       -0.0577
    239 C           9.2017   20.2789    3.5687 C.ar    1  UNL1       -0.0538
    240 H           7.8340   21.7973    6.2650 H       1  UNL1        0.0624
    241 H          10.1336   21.5319    7.1149 H       1  UNL1        0.0621
    242 H          11.2416   19.6436    3.4059 H       1  UNL1        0.0621
    243 H           8.9740   19.9190    2.5670 H       1  UNL1        0.0624
    244 C          12.2675   20.1757    5.8282 C.3     1  UNL1       -0.0018
    245 C          13.1837   21.0078    6.7209 C.ar    1  UNL1       -0.0351
    246 H          12.8855   19.9208    4.9557 H       1  UNL1        0.0362
    247 H          12.0561   19.2311    6.3471 H       1  UNL1        0.0362
    248 C          13.2409   22.4240    6.7101 C.ar    1  UNL1       -0.0539
    249 C          14.2244   23.1449    7.4501 C.ar    1  UNL1       -0.0393
    250 C          15.1342   22.4306    8.2355 C.ar    1  UNL1       -0.0390
    251 C          15.0890   21.0380    8.2461 C.ar    1  UNL1       -0.0500
    252 C          14.1673   20.3151    7.4764 C.ar    1  UNL1       -0.0141
    253 C          14.3847   18.8597    7.4499 C.ar    1  UNL1       -0.0176
    254 H          15.8299   20.4921    8.8323 H       1  UNL1        0.0627
    255 H          12.5397   22.9794    6.0886 H       1  UNL1        0.0623
    256 C          15.3185   18.3127    6.5549 C.ar    1  UNL1       -0.0537
    257 C          15.6906   16.9698    6.6392 C.ar    1  UNL1       -0.0569
    258 C          15.1385   16.1433    7.6257 C.ar    1  UNL1       -0.0327
    259 C          14.1711   16.6741    8.4910 C.ar    1  UNL1       -0.0569
    260 C          13.8032   18.0206    8.4081 C.ar    1  UNL1       -0.0537
    261 H          15.7965   18.9503    5.8129 H       1  UNL1        0.0624
    262 H          16.4343   16.5820    5.9460 H       1  UNL1        0.0621
    263 H          13.7149   16.0490    9.2558 H       1  UNL1        0.0621
    264 H          13.0869   18.4241    9.1209 H       1  UNL1        0.0624
    265 C          15.5809   14.7126    7.7532 C.3     1  UNL1        0.0476
    266 CL         14.6400   13.6662    6.6758 Cl      1  UNL1       -0.1204
    267 H          15.4578   14.3534    8.7804 H       1  UNL1        0.0478
    268 H          16.6415   14.6105    7.4982 H       1  UNL1        0.0478
    269 C          16.1927   23.0793    9.0780 C.3     1  UNL1       -0.0019
    270 C          16.4012   24.5443    8.8500 C.ar    1  UNL1       -0.0395
    271 H          17.1467   22.5732    8.8739 H       1  UNL1        0.0362
    272 H          15.9403   22.9235   10.1344 H       1  UNL1        0.0362
    273 C          15.5277   25.3060    8.0620 C.ar    1  UNL1       -0.0390
    274 C          14.3132   24.6671    7.3903 C.3     1  UNL1       -0.0019
    275 H          14.3257   24.9601    6.3330 H       1  UNL1        0.0362
    276 H          13.4116   25.0786    7.8595 H       1  UNL1        0.0362
    277 C          17.4992   25.1463    9.4807 C.ar    1  UNL1       -0.0574
    278 C          17.7418   26.5045    9.3321 C.ar    1  UNL1       -0.0537
    279 C          16.8982   27.3050    8.5505 C.ar    1  UNL1       -0.0176
    280 C          15.7878   26.6899    7.9264 C.ar    1  UNL1       -0.0503
    281 H          15.1183   27.2980    7.3195 H       1  UNL1        0.0627
    282 H          18.5917   26.9427    9.8522 H       1  UNL1        0.0624
    283 H          18.1706   24.5553   10.1003 H       1  UNL1        0.0621
    284 C          17.1927   28.7465    8.4412 C.ar    1  UNL1       -0.0176
    285 C          18.4817   29.1970    8.1215 C.ar    1  UNL1       -0.0537
    286 C          18.7995   30.5577    8.1280 C.ar    1  UNL1       -0.0566
    287 C          16.2281   29.7151    8.7422 C.ar    1  UNL1       -0.0502
    288 C          16.5189   31.1006    8.7277 C.ar    1  UNL1       -0.0382
    289 C          17.8315   31.5279    8.4322 C.ar    1  UNL1       -0.0293
    290 H          19.8248   30.8523    7.9096 H       1  UNL1        0.0621
    291 H          19.2673   28.4811    7.8861 H       1  UNL1        0.0624
    292 H          15.2252   29.3900    9.0205 H       1  UNL1        0.0627
    293 C          18.2641   32.9724    8.4681 C.3     1  UNL1        0.0479
    294 CL         18.5593   33.4947   10.1409 Cl      1  UNL1       -0.1204
    295 H          17.5230   33.6334    8.0104 H       1  UNL1        0.0479
    296 H          19.1960   33.1188    7.9115 H       1  UNL1        0.0479
    297 C          15.3979   32.0625    9.0805 C.3     1  UNL1       -0.0021
    298 C          14.1391   31.9201    8.2469 C.ar    1  UNL1       -0.0430
    299 H          15.7107   33.1070    8.9964 H       1  UNL1        0.0362
    300 H          15.1627   31.9013   10.1412 H       1  UNL1        0.0362
    301 C          14.1834   31.6439    6.8721 C.ar    1  UNL1       -0.0577
    302 C          13.0071   31.5552    6.1224 C.ar    1  UNL1       -0.0538
    303 C          11.7598   31.7732    6.7204 C.ar    1  UNL1       -0.0179
    304 C          11.7206   32.0592    8.0938 C.ar    1  UNL1       -0.0538
    305 C          12.8932   32.1347    8.8478 C.ar    1  UNL1       -0.0577
    306 H          15.1357   31.4941    6.3672 H       1  UNL1        0.0621
    307 C          10.5299   31.7920    5.9216 C.ar    1  UNL1       -0.0176
    308 C          10.0519   30.6517    5.2510 C.ar    1  UNL1       -0.0503
    309 C           9.8089   32.9886    5.8082 C.ar    1  UNL1       -0.0537
    310 C           8.8641   30.6929    4.4966 C.ar    1  UNL1       -0.0390
    311 C           8.1608   31.9053    4.4061 C.ar    1  UNL1       -0.0395
    312 C           8.6428   33.0482    5.0551 C.ar    1  UNL1       -0.0574
    313 H          10.6063   29.7177    5.3275 H       1  UNL1        0.0627
    314 H          10.1661   33.8909    6.3006 H       1  UNL1        0.0624
    315 H           8.1098   33.9931    4.9758 H       1  UNL1        0.0621
    316 C           6.9093   32.0227    3.5829 C.3     1  UNL1       -0.0019
    317 H           6.1975   32.6556    4.1291 H       1  UNL1        0.0362
    318 H           7.1571   32.5212    2.6376 H       1  UNL1        0.0362
    319 C           8.3784   29.4555    3.7620 C.3     1  UNL1       -0.0019
    320 H           9.0148   29.3026    2.8822 H       1  UNL1        0.0362
    321 H           8.4967   28.5941    4.4320 H       1  UNL1        0.0362
    322 H          12.8248   32.3743    9.9068 H       1  UNL1        0.0621
    323 H          10.7659   32.2414    8.5840 H       1  UNL1        0.0624
    324 H          13.0729   31.3495    5.0561 H       1  UNL1        0.0624
@<TRIPOS>BOND
     1     1     2   ar
     2     2     3   ar
     3     3     4   ar
     4     5     4   ar
     5     6     5   ar
     6     6     1   ar
     7     6     7    1
     8     5     8    1
     9     2     9    1
    10     3    10    1
    11    11     4    1
    12    12    11    1
    13    11    13    1
    14    11    14    1
    15    15    17   ar
    16    15    20    1
    17    16    18   ar
    18    16    15   ar
    19    17    19   ar
    20    18    21   ar
    21    19    21   ar
    22    19     1    1
    23    21    22    1
    24    17    23    1
    25    23    24    1
    26    23    25    1
    27    23    26    1
    28    24    27   ar
    29    27    28   ar
    30    28    29   ar
    31    29    30   ar
    32    31    30   ar
    33    31    24   ar
    34    27    32    1
    35    28    33    1
    36    31    34    1
    37    29    35    1
    38    35    36   ar
    39    36    37   ar
    40    37    38   ar
    41    35    39   ar
    42    39    40   ar
    43    40    38   ar
    44    36    41    1
    45    37    42    1
    46    39    43    1
    47    40    44    1
    48    38    45    1
    49    45    46    1
    50    45    47    1
    51    45    48    1
    52    18    49    1
    53    49    50    1
    54    49    51    1
    55    49    52    1
    56    16    53    1
    57    53    54    1
    58    53    55    1
    59    53    56    1
    60    50    54   ar
    61    50    57   ar
    62    57    58   ar
    63    54    59   ar
    64    59    60   ar
    65    58    60   ar
    66    59    61    1
    67    57    62    1
    68    58    63    1
    69    60    64    1
    70    64    65   ar
    71    65    66   ar
    72    66    67   ar
    73    68    67   ar
    74    65    69    1
    75    66    70    1
    76    64    71   ar
    77    71    68   ar
    78    68    72    1
    79    71    73    1
    80    30    74    1
    81    75    74    1
    82    74    76    1
    83    74    77    1
    84    78    75   ar
    85    78    79   ar
    86    75    80   ar
    87    80    81   ar
    88    82    81   ar
    89    79    82   ar
    90    78    83    1
    91    79    84    1
    92    80    85    1
    93    81    86    1
    94    87    82    1
    95    88    87   ar
    96    88    89   ar
    97    87    90   ar
    98    90    91   ar
    99    89    92   ar
   100    92    91   ar
   101    88    93    1
   102    91    94    1
   103    90    95    1
   104    95    96    1
   105    95    97    1
   106    95    98    1
   107    96    99   ar
   108    99   100   ar
   109   100   101   ar
   110   101   102   ar
   111   103   102   ar
   112    96   103   ar
   113    99   104    1
   114   100   105    1
   115   103   106    1
   116   101   107    1
   117   107   108   ar
   118   108   109   ar
   119   109   110   ar
   120   110   111   ar
   121   112   111   ar
   122   107   112   ar
   123   108   113    1
   124   112   114    1
   125   111   115    1
   126   109   116    1
   127   110   117    1
   128   118   117    1
   129   117   119    1
   130   117   120    1
   131   102   121    1
   132   122   121    1
   133   121   123    1
   134   121   124    1
   135   125   122   ar
   136   125   126   ar
   137   126   127   ar
   138   122   128   ar
   139   128   129   ar
   140   127   129   ar
   141   125   130    1
   142   126   131    1
   143   128   132    1
   144   129   133    1
   145   127   134    1
   146   135   134   ar
   147   135   136   ar
   148   134   137   ar
   149   137   138   ar
   150   139   136   ar
   151   138   139   ar
   152   135   140    1
   153   137   141    1
   154   138   142    1
   155   143   136    1
   156   144   145   ar
   157   139   146    1
   158   145   146    1
   159   146   147    1
   160   146   148    1
   161   143   144    1
   162   143   149    1
   163   143   150    1
   164   151   144   ar
   165   145   152   ar
   166   153   152   ar
   167   154   153   ar
   168   151   154   ar
   169   151   155    1
   170   152   156    1
   171   153   157    1
   172   158   157   ar
   173   158   159   ar
   174   157   160   ar
   175   161   160   ar
   176   162   161   ar
   177   159   162   ar
   178   158   163    1
   179   159   164    1
   180   160   165    1
   181   161   166    1
   182   167   162    1
   183   168   167    1
   184   167   169    1
   185   167   170    1
   186   171   154    1
   187   172    89    1
   188   173    92    1
   189   174   173    1
   190   173   175    1
   191   173   176    1
   192   177   172    1
   193   172   178    1
   194   172   179    1
   195   177   174   ar
   196   180   177   ar
   197   181   174   ar
   198   182   181   ar
   199   183   182   ar
   200   183   180   ar
   201   180   184    1
   202   181   185    1
   203   182   186    1
   204   187   186   ar
   205   186   188   ar
   206   189   188   ar
   207   190   189   ar
   208   191   187   ar
   209   191   190   ar
   210   191   192    1
   211   187   193    1
   212   188   194    1
   213   189   195    1
   214   190   196    1
   215   171   199    1
   216   171   200    1
   217   171   201    1
   218   198   199   ar
   219   197   199   ar
   220   197   202   ar
   221   202   203   ar
   222   203   204   ar
   223   198   204   ar
   224   198   205    1
   225   204   206    1
   226   197   207    1
   227   202   196    1
   228   196   208    1
   229   196   209    1
   230   203   210    1
   231   210   211   ar
   232   212   211   ar
   233   213   212   ar
   234   213   214   ar
   235   210   215   ar
   236   214   215   ar
   237   211   216    1
   238   212   217    1
   239   215   218    1
   240    67   219    1
   241   220   219    1
   242   219   221    1
   243   219   222    1
   244   220   223   ar
   245   224   223   ar
   246   224   225   ar
   247   220   226   ar
   248   225   227   ar
   249   227   226   ar
   250   226   228    1
   251   224   229    1
   252   225   230    1
   253   227   231    1
   254   183   231    1
   255   231   232    1
   256   231   233    1
   257   223   234    1
   258   235   234   ar
   259   235   236   ar
   260   237   236   ar
   261   237   238   ar
   262   238   239   ar
   263   239   234   ar
   264   235   240    1
   265   236   241    1
   266   238   242    1
   267   239   243    1
   268   237   244    1
   269   245   244    1
   270   244   246    1
   271   244   247    1
   272   248   245   ar
   273   248   249   ar
   274   250   249   ar
   275   250   251   ar
   276   251   252   ar
   277   245   252   ar
   278   252   253    1
   279   251   254    1
   280   248   255    1
   281   253   256   ar
   282   256   257   ar
   283   257   258   ar
   284   258   259   ar
   285   259   260   ar
   286   260   253   ar
   287   256   261    1
   288   257   262    1
   289   259   263    1
   290   260   264    1
   291   258   265    1
   292   265   266    1
   293   265   267    1
   294   265   268    1
   295   250   269    1
   296   270   269    1
   297   269   271    1
   298   269   272    1
   299   273   270   ar
   300   274   273    1
   301   249   274    1
   302   274   275    1
   303   274   276    1
   304   277   270   ar
   305   278   277   ar
   306   279   278   ar
   307   280   273   ar
   308   280   279   ar
   309   280   281    1
   310   278   282    1
   311   277   283    1
   312   279   284    1
   313   285   284   ar
   314   286   285   ar
   315   287   284   ar
   316   288   287   ar
   317   289   288   ar
   318   289   286   ar
   319   286   290    1
   320   285   291    1
   321   287   292    1
   322   289   293    1
   323   294   293    1
   324   293   295    1
   325   293   296    1
   326   288   297    1
   327   297   298    1
   328   297   299    1
   329   297   300    1
   330   301   298   ar
   331   301   302   ar
   332   303   302   ar
   333   303   304   ar
   334   298   305   ar
   335   305   304   ar
   336   301   306    1
   337   303   307    1
   338   307   308   ar
   339   307   309   ar
   340   308   310   ar
   341   311   310   ar
   342   311   312   ar
   343   309   312   ar
   344   308   313    1
   345   309   314    1
   346   312   315    1
   347   214   316    1
   348   316   311    1
   349   316   317    1
   350   316   318    1
   351   213   319    1
   352   319   310    1
   353   319   320    1
   354   319   321    1
   355   305   322    1
   356   304   323    1
   357   302   324    1
